REMARK SMILES O=C(CCc1nc(=O)c2ccccc2[nH]1)NC(CCc1ccccc1)C(=O)O
REMARK SMILES IDX 1 1 2 2 16 3 3 5 4 6 5 7 6 8 15 9 7 10 14 11 9 12 13 13
REMARK SMILES IDX 10 14 12 15 11 16 8 18 17 19 18 20 19 21 20 22 21 23 25 24
REMARK SMILES IDX 22 25 24 26 23 27 26 28 27 29 28 30
REMARK H PARENT 16 4 15 17 28 31
ROOT
ATOM      1  O   UNL     1      -0.655   0.833  -0.924  1.00  0.00    -0.275 OA
ATOM      2  C   UNL     1      -0.216   0.485   0.191  1.00  0.00     0.221 C 
ATOM      3  N   UNL     1      -1.068   0.461   1.340  1.00  0.00    -0.343 N 
ATOM      4  H   UNL     1      -0.752   0.180   2.285  1.00  0.00     0.164 HD
ENDROOT
BRANCH   2   5
ATOM      5  C   UNL     1       1.200   0.074   0.417  1.00  0.00     0.108 C 
BRANCH   5   6
ATOM      6  C   UNL     1       1.950   0.161  -0.908  1.00  0.00     0.085 C 
BRANCH   6   7
ATOM      7  C   UNL     1       3.357  -0.246  -0.689  1.00  0.00     0.111 A 
ATOM      8  N   UNL     1       3.712  -0.602   0.562  1.00  0.00    -0.196 NA
ATOM      9  N   UNL     1       4.214  -0.247  -1.726  1.00  0.00    -0.343 N 
ATOM     10  C   UNL     1       4.973  -0.989   0.862  1.00  0.00     0.280 A 
ATOM     11  C   UNL     1       5.487  -0.625  -1.483  1.00  0.00     0.052 A 
ATOM     12  C   UNL     1       5.867  -0.992  -0.205  1.00  0.00     0.065 A 
ATOM     13  C   UNL     1       6.416  -0.647  -2.507  1.00  0.00     0.027 A 
ATOM     14  C   UNL     1       7.179  -1.384   0.055  1.00  0.00     0.016 A 
ATOM     15  C   UNL     1       7.722  -1.030  -2.280  1.00  0.00     0.002 A 
ATOM     16  C   UNL     1       8.081  -1.395  -0.990  1.00  0.00     0.001 A 
ATOM     17  H   UNL     1       3.947   0.025  -2.688  1.00  0.00     0.168 HD
ATOM     18  O   UNL     1       5.334  -1.325   2.015  1.00  0.00    -0.267 OA
ENDBRANCH   6   7
ENDBRANCH   5   6
ENDBRANCH   2   5
BRANCH   3  19
ATOM     19  C   UNL     1      -2.480   0.860   1.164  1.00  0.00     0.192 C 
BRANCH  19  20
ATOM     20  C   UNL     1      -3.312  -0.295   1.546  1.00  0.00     0.042 C 
BRANCH  20  21
ATOM     21  C   UNL     1      -4.788  -0.172   1.427  1.00  0.00     0.038 C 
BRANCH  21  22
ATOM     22  C   UNL     1      -5.297   0.049   0.059  1.00  0.00    -0.048 A 
ATOM     23  C   UNL     1      -5.535   1.246  -0.532  1.00  0.00     0.004 A 
ATOM     24  C   UNL     1      -5.556  -1.091  -0.719  1.00  0.00     0.004 A 
ATOM     25  C   UNL     1      -6.012   1.342  -1.844  1.00  0.00     0.000 A 
ATOM     26  C   UNL     1      -6.024  -1.001  -2.007  1.00  0.00     0.000 A 
ATOM     27  C   UNL     1      -6.265   0.234  -2.603  1.00  0.00     0.000 A 
ENDBRANCH  21  22
ENDBRANCH  20  21
ENDBRANCH  19  20
BRANCH  19  28
ATOM     28  C   UNL     1      -2.728   2.082   1.978  1.00  0.00     0.326 C 
ATOM     29  O   UNL     1      -3.807   2.670   2.083  1.00  0.00    -0.250 OA
BRANCH  28  30
ATOM     30  O   UNL     1      -1.650   2.639   2.707  1.00  0.00    -0.480 OA
ATOM     31  H   UNL     1      -1.735   3.529   3.176  1.00  0.00     0.296 HD
ENDBRANCH  28  30
ENDBRANCH  19  28
ENDBRANCH   3  19
TORSDOF 9
