REMARK SMILES CCOC(=O)C=C(C)C=CCC(C)CCCC(C)C
REMARK SMILES IDX 10 1 9 2 7 3 8 4 6 5 4 6 5 7 3 8 2 9 1 10 11 11 12 12 13 13
REMARK SMILES IDX 14 14 15 15 16 16 17 17 18 18 19 19
REMARK H PARENT
ROOT
ATOM      1  C   UNL     1       0.440  -0.747  -0.350  1.00  0.00    -0.026 C 
ENDROOT
BRANCH   1   2
ATOM      2  C   UNL     1       1.621  -0.787  -0.939  1.00  0.00    -0.001 C 
BRANCH   2   3
ATOM      3  C   UNL     1       2.885  -0.537  -0.244  1.00  0.00    -0.044 C 
ATOM      4  C   UNL     1       2.959  -0.213   1.203  1.00  0.00     0.044 C 
BRANCH   3   5
ATOM      5  C   UNL     1       4.011  -0.604  -0.935  1.00  0.00     0.096 C 
BRANCH   5   6
ATOM      6  C   UNL     1       5.335  -0.381  -0.382  1.00  0.00     0.330 C 
ATOM      7  O   UNL     1       6.383  -0.463  -1.118  1.00  0.00    -0.247 OA
BRANCH   6   8
ATOM      8  O   UNL     1       5.585  -0.068   0.946  1.00  0.00    -0.463 OA
BRANCH   8   9
ATOM      9  C   UNL     1       6.906   0.136   1.412  1.00  0.00     0.230 C 
ATOM     10  C   UNL     1       7.495   1.286   0.636  1.00  0.00     0.049 C 
ENDBRANCH   8   9
ENDBRANCH   6   8
ENDBRANCH   5   6
ENDBRANCH   3   5
ENDBRANCH   2   3
ENDBRANCH   1   2
BRANCH   1  11
ATOM     11  C   UNL     1      -0.797  -1.013  -1.131  1.00  0.00     0.030 C 
BRANCH  11  12
ATOM     12  C   UNL     1      -1.680   0.191  -1.080  1.00  0.00    -0.011 C 
ATOM     13  C   UNL     1      -0.967   1.406  -1.673  1.00  0.00     0.008 C 
BRANCH  12  14
ATOM     14  C   UNL     1      -2.115   0.462   0.328  1.00  0.00     0.003 C 
BRANCH  14  15
ATOM     15  C   UNL     1      -2.869  -0.709   0.903  1.00  0.00     0.001 C 
BRANCH  15  16
ATOM     16  C   UNL     1      -4.094  -1.027   0.113  1.00  0.00     0.003 C 
BRANCH  16  17
ATOM     17  C   UNL     1      -5.090   0.098   0.018  1.00  0.00    -0.017 C 
ATOM     18  C   UNL     1      -6.252  -0.440  -0.825  1.00  0.00     0.007 C 
ATOM     19  C   UNL     1      -5.638   0.530   1.336  1.00  0.00     0.007 C 
ENDBRANCH  16  17
ENDBRANCH  15  16
ENDBRANCH  14  15
ENDBRANCH  12  14
ENDBRANCH  11  12
ENDBRANCH   1  11
TORSDOF 12
