REMARK SMILES C=C1N(CCSC(O)CCCN)C(=O)CC12C=c1c(N3CCOCC3)ncnc1=NC2
REMARK SMILES IDX 7 1 6 2 5 3 4 4 3 5 2 6 16 7 13 8 15 9 17 10 31 11 18 12
REMARK SMILES IDX 30 13 19 14 29 15 26 16 28 17 27 18 1 19 14 20 20 21 21 22
REMARK SMILES IDX 25 23 22 24 24 25 23 26 8 27 9 29 10 30 11 31 12 32
REMARK H PARENT 8 28 12 33 12 34
ROOT
ATOM      1  C   UNL     1       5.077   0.531  -0.021  1.00  0.00     0.171 C 
ENDROOT
BRANCH   1   2
ATOM      2  S   UNL     1       3.663   1.578   0.384  1.00  0.00    -0.129 SA
BRANCH   2   3
ATOM      3  C   UNL     1       2.108   0.868  -0.157  1.00  0.00     0.094 C 
BRANCH   3   4
ATOM      4  C   UNL     1       1.775  -0.406   0.590  1.00  0.00     0.136 C 
BRANCH   4   5
ATOM      5  N   UNL     1       0.511  -0.970   0.147  1.00  0.00    -0.315 N 
ATOM      6  C   UNL     1      -0.793  -0.688   0.696  1.00  0.00     0.026 C 
ATOM      7  C   UNL     1      -1.792  -1.554  -0.006  1.00  0.00     0.058 C 
ATOM      8  C   UNL     1       0.303  -1.911  -0.909  1.00  0.00     0.228 C 
ATOM      9  C   UNL     1      -1.102  -1.640  -1.382  1.00  0.00     0.120 C 
ATOM     10  C   UNL     1      -3.094  -0.895  -0.116  1.00  0.00     0.004 C 
ATOM     11  C   UNL     1      -1.850  -2.923   0.552  1.00  0.00     0.162 C 
ATOM     12  C   UNL     1      -4.256  -1.411   0.223  1.00  0.00     0.059 A 
ATOM     13  N   UNL     1      -3.171  -3.340   0.872  1.00  0.00    -0.265 NA
ATOM     14  C   UNL     1      -5.417  -0.700   0.075  1.00  0.00     0.141 A 
ATOM     15  C   UNL     1      -4.246  -2.687   0.734  1.00  0.00     0.159 A 
ATOM     16  N   UNL     1      -6.564  -1.305   0.454  1.00  0.00    -0.219 NA
ATOM     17  N   UNL     1      -5.402  -3.257   1.100  1.00  0.00    -0.217 NA
ATOM     18  C   UNL     1      -6.562  -2.559   0.958  1.00  0.00     0.226 A 
ATOM     19  C   UNL     1      -1.098   0.175   1.652  1.00  0.00     0.033 C 
ATOM     20  O   UNL     1       1.126  -2.744  -1.310  1.00  0.00    -0.274 OA
BRANCH  14  21
ATOM     21  N   UNL     1      -5.496   0.611  -0.457  1.00  0.00    -0.351 N 
ATOM     22  C   UNL     1      -5.162   0.948  -1.826  1.00  0.00     0.146 C 
ATOM     23  C   UNL     1      -5.932   1.671   0.407  1.00  0.00     0.146 C 
ATOM     24  C   UNL     1      -4.453   2.273  -1.926  1.00  0.00     0.181 C 
ATOM     25  C   UNL     1      -5.375   3.020   0.008  1.00  0.00     0.181 C 
ATOM     26  O   UNL     1      -5.327   3.222  -1.350  1.00  0.00    -0.378 OA
ENDBRANCH  14  21
ENDBRANCH   4   5
ENDBRANCH   3   4
ENDBRANCH   2   3
ENDBRANCH   1   2
BRANCH   1  27
ATOM     27  O   UNL     1       5.058  -0.658   0.685  1.00  0.00    -0.382 OA
ATOM     28  H   UNL     1       5.563  -1.385   0.243  1.00  0.00     0.212 HD
ENDBRANCH   1  27
BRANCH   1  29
ATOM     29  C   UNL     1       6.343   1.286   0.343  1.00  0.00     0.044 C 
BRANCH  29  30
ATOM     30  C   UNL     1       7.573   0.474   0.041  1.00  0.00     0.019 C 
BRANCH  30  31
ATOM     31  C   UNL     1       8.860   1.203   0.396  1.00  0.00     0.078 C 
BRANCH  31  32
ATOM     32  N   UNL     1       9.966   0.330   0.063  1.00  0.00    -0.330 NA
ATOM     33  H   UNL     1      10.676   0.232   0.815  1.00  0.00     0.118 HD
ATOM     34  H   UNL     1       9.645  -0.632  -0.198  1.00  0.00     0.118 HD
ENDBRANCH  31  32
ENDBRANCH  30  31
ENDBRANCH  29  30
ENDBRANCH   1  29
TORSDOF 10
