REMARK SMILES O=C(O)c1cc(N=Nc2ccc(O)cc2)ccc1O
REMARK SMILES IDX 7 1 6 2 4 3 5 4 18 5 17 6 16 7 2 8 1 9 3 10 19 12 8 14 9 15
REMARK SMILES IDX 10 16 15 17 11 18 14 19 12 20 13 21
REMARK H PARENT 3 11 19 13 13 22
ROOT
ATOM      1  N   UNL     1       0.212  -0.205  -0.235  1.00  0.00    -0.151 NA
ENDROOT
BRANCH   1   2
ATOM      2  C   UNL     1      -1.199  -0.392  -0.229  1.00  0.00     0.087 A 
ATOM      3  C   UNL     1      -3.359   0.586   0.245  1.00  0.00     0.103 A 
ATOM      4  C   UNL     1      -1.968   0.663   0.200  1.00  0.00     0.049 A 
ATOM      5  C   UNL     1      -3.975  -0.578  -0.151  1.00  0.00     0.130 A 
ATOM      6  C   UNL     1      -3.203  -1.639  -0.582  1.00  0.00     0.049 A 
ATOM      7  C   UNL     1      -1.807  -1.562  -0.628  1.00  0.00     0.034 A 
BRANCH   3   8
ATOM      8  C   UNL     1      -4.094   1.761   0.717  1.00  0.00     0.339 C 
ATOM      9  O   UNL     1      -3.481   2.824   1.076  1.00  0.00    -0.246 OA
BRANCH   8  10
ATOM     10  O   UNL     1      -5.461   1.785   0.798  1.00  0.00    -0.478 OA
ATOM     11  H   UNL     1      -5.947   2.623   1.155  1.00  0.00     0.297 HD
ENDBRANCH   8  10
ENDBRANCH   3   8
BRANCH   5  12
ATOM     12  O   UNL     1      -5.371  -0.648  -0.103  1.00  0.00    -0.507 OA
ATOM     13  H   UNL     1      -5.827  -0.578   0.818  1.00  0.00     0.293 HD
ENDBRANCH   5  12
ENDBRANCH   1   2
BRANCH   1  14
ATOM     14  N   UNL     1       1.071  -1.108  -0.368  1.00  0.00    -0.151 NA
BRANCH  14  15
ATOM     15  C   UNL     1       2.439  -0.666  -0.341  1.00  0.00     0.086 A 
ATOM     16  C   UNL     1       2.790   0.625  -0.709  1.00  0.00     0.034 A 
ATOM     17  C   UNL     1       3.456  -1.517   0.056  1.00  0.00     0.034 A 
ATOM     18  C   UNL     1       4.099   1.073  -0.691  1.00  0.00     0.048 A 
ATOM     19  C   UNL     1       4.779  -1.071   0.077  1.00  0.00     0.048 A 
ATOM     20  C   UNL     1       5.109   0.215  -0.293  1.00  0.00     0.115 A 
BRANCH  20  21
ATOM     21  O   UNL     1       6.410   0.701  -0.288  1.00  0.00    -0.508 OA
ATOM     22  H   UNL     1       6.652   1.361   0.457  1.00  0.00     0.293 HD
ENDBRANCH  20  21
ENDBRANCH  14  15
ENDBRANCH   1  14
TORSDOF 7
