REMARK SMILES NCC=CCN1CCN(c2ccccc2)CC1
REMARK SMILES IDX 3 1 2 2 1 3 4 6 5 7 6 8 7 9 17 10 8 11 16 12 9 13 10 14
REMARK SMILES IDX 11 15 15 16 12 17 14 18 13 19
REMARK H PARENT 1 4 1 5
ROOT
ATOM      1  C   UNL     1       4.106   0.472   1.146  1.00  0.00    -0.015 C 
ENDROOT
BRANCH   1   2
ATOM      2  C   UNL     1       4.749   1.282   0.111  1.00  0.00     0.105 C 
BRANCH   2   3
ATOM      3  N   UNL     1       6.160   0.989  -0.060  1.00  0.00    -0.327 NA
ATOM      4  H   UNL     1       6.342   0.448  -0.927  1.00  0.00     0.119 HD
ATOM      5  H   UNL     1       6.625   0.642   0.784  1.00  0.00     0.119 HD
ENDBRANCH   2   3
ENDBRANCH   1   2
BRANCH   1   6
ATOM      6  C   UNL     1       3.093  -0.361   0.985  1.00  0.00    -0.015 C 
BRANCH   6   7
ATOM      7  C   UNL     1       2.392  -0.657  -0.265  1.00  0.00     0.111 C 
BRANCH   7   8
ATOM      8  N   UNL     1       0.982  -0.338  -0.225  1.00  0.00    -0.296 NA
ATOM      9  C   UNL     1       0.253  -1.205   0.671  1.00  0.00     0.106 C 
ATOM     10  C   UNL     1       0.401  -0.303  -1.553  1.00  0.00     0.106 C 
ATOM     11  C   UNL     1      -1.095  -1.601   0.073  1.00  0.00     0.132 C 
ATOM     12  C   UNL     1      -0.993   0.248  -1.556  1.00  0.00     0.132 C 
ATOM     13  N   UNL     1      -1.744  -0.475  -0.524  1.00  0.00    -0.369 N 
BRANCH  13  14
ATOM     14  C   UNL     1      -3.039   0.003  -0.210  1.00  0.00     0.037 A 
ATOM     15  C   UNL     1      -3.575   1.104  -0.881  1.00  0.00     0.026 A 
ATOM     16  C   UNL     1      -3.854  -0.557   0.752  1.00  0.00     0.026 A 
ATOM     17  C   UNL     1      -4.827   1.601  -0.607  1.00  0.00     0.002 A 
ATOM     18  C   UNL     1      -5.119  -0.072   1.045  1.00  0.00     0.002 A 
ATOM     19  C   UNL     1      -5.615   1.019   0.360  1.00  0.00     0.000 A 
ENDBRANCH  13  14
ENDBRANCH   7   8
ENDBRANCH   6   7
ENDBRANCH   1   6
TORSDOF 6
