REMARK SMILES CC=C(C)C(=O)N1CCC2(CCc3ccccc32)CC1
REMARK SMILES IDX 3 1 4 2 2 3 1 4 5 5 7 6 8 7 20 8 9 9 19 10 10 11 11 12 18 13
REMARK SMILES IDX 12 14 17 15 13 16 16 17 14 18 15 19 6 20
REMARK H PARENT
ROOT
ATOM      1  C   UNL     1       3.883  -1.070   0.351  1.00  0.00     0.010 C 
ATOM      2  C   UNL     1       4.804  -2.052   1.139  1.00  0.00     0.050 C 
ENDROOT
BRANCH   1   3
ATOM      3  C   UNL     1       4.520  -0.484  -0.615  1.00  0.00    -0.021 C 
ATOM      4  C   UNL     1       4.097   0.495  -1.611  1.00  0.00     0.036 C 
ENDBRANCH   1   3
BRANCH   1   5
ATOM      5  C   UNL     1       2.560  -1.003   0.845  1.00  0.00     0.249 C 
ATOM      6  N   UNL     1       1.396  -0.303   0.541  1.00  0.00    -0.339 N 
ATOM      7  C   UNL     1       0.225  -0.651   1.410  1.00  0.00     0.120 C 
ATOM      8  C   UNL     1       1.119   0.695  -0.441  1.00  0.00     0.120 C 
ATOM      9  C   UNL     1      -0.890  -1.073   0.481  1.00  0.00     0.033 C 
ATOM     10  C   UNL     1      -0.315   1.216  -0.227  1.00  0.00     0.033 C 
ATOM     11  C   UNL     1      -1.319   0.105  -0.321  1.00  0.00    -0.001 C 
ATOM     12  C   UNL     1      -1.522  -0.233  -1.795  1.00  0.00     0.017 C 
ATOM     13  C   UNL     1      -2.631   0.657   0.085  1.00  0.00    -0.038 A 
ATOM     14  C   UNL     1      -2.996  -0.322  -2.030  1.00  0.00     0.037 C 
ATOM     15  C   UNL     1      -2.951   1.339   1.260  1.00  0.00     0.004 A 
ATOM     16  C   UNL     1      -3.585   0.417  -0.883  1.00  0.00    -0.044 A 
ATOM     17  C   UNL     1      -4.260   1.780   1.447  1.00  0.00     0.000 A 
ATOM     18  C   UNL     1      -4.881   0.857  -0.692  1.00  0.00     0.004 A 
ATOM     19  C   UNL     1      -5.218   1.532   0.462  1.00  0.00     0.000 A 
ATOM     20  O   UNL     1       2.338  -1.819   1.882  1.00  0.00    -0.269 OA
ENDBRANCH   1   5
TORSDOF 2
