REMARK SMILES CCC(CC)N(c1ccc2c(c1)N(C)C(=O)CC2)C(C)C
REMARK SMILES IDX 3 1 2 2 1 3 4 4 5 5 6 6 7 7 8 8 12 9 9 10 11 11 10 12 13 13
REMARK SMILES IDX 18 14 15 15 17 16 14 17 16 18 19 19 20 20 21 21
REMARK H PARENT
ROOT
ATOM      1  C   UNL     1      -2.158   0.704  -0.258  1.00  0.00     0.082 C 
ENDROOT
BRANCH   1   2
ATOM      2  C   UNL     1      -2.717   1.758  -1.176  1.00  0.00     0.021 C 
ATOM      3  C   UNL     1      -3.675   2.686  -0.408  1.00  0.00     0.006 C 
ENDBRANCH   1   2
BRANCH   1   4
ATOM      4  C   UNL     1      -3.286  -0.086   0.289  1.00  0.00     0.021 C 
ATOM      5  C   UNL     1      -4.215  -0.777  -0.645  1.00  0.00     0.006 C 
ENDBRANCH   1   4
BRANCH   1   6
ATOM      6  N   UNL     1      -0.955   0.067  -0.648  1.00  0.00    -0.366 N 
BRANCH   6   7
ATOM      7  C   UNL     1       0.305   0.315   0.038  1.00  0.00     0.039 A 
ATOM      8  C   UNL     1       0.426   1.303   0.997  1.00  0.00     0.026 A 
ATOM      9  C   UNL     1       1.428  -0.450  -0.199  1.00  0.00     0.052 A 
ATOM     10  C   UNL     1       1.634   1.512   1.690  1.00  0.00     0.008 A 
ATOM     11  C   UNL     1       2.632  -0.240   0.492  1.00  0.00     0.049 A 
ATOM     12  C   UNL     1       2.745   0.743   1.443  1.00  0.00    -0.024 A 
ATOM     13  N   UNL     1       3.779  -1.061   0.224  1.00  0.00    -0.315 N 
ATOM     14  C   UNL     1       3.988   1.020   2.200  1.00  0.00     0.047 C 
ATOM     15  C   UNL     1       5.004  -0.853   0.933  1.00  0.00     0.227 C 
ATOM     16  C   UNL     1       4.934  -0.150   2.241  1.00  0.00     0.105 C 
ATOM     17  C   UNL     1       3.664  -2.113  -0.786  1.00  0.00     0.153 C 
ATOM     18  O   UNL     1       6.064  -1.274   0.415  1.00  0.00    -0.275 OA
ENDBRANCH   6   7
BRANCH   6  19
ATOM     19  C   UNL     1      -0.836  -0.845  -1.799  1.00  0.00     0.076 C 
ATOM     20  C   UNL     1      -1.510  -2.157  -1.592  1.00  0.00     0.030 C 
ATOM     21  C   UNL     1      -1.413  -0.201  -3.077  1.00  0.00     0.030 C 
ENDBRANCH   6  19
ENDBRANCH   1   6
TORSDOF 5
