REMARK SMILES CCOC(=O)Cn1c(=O)c2cc(C)cc(C)c2n2c(-c3ccccc3)nnc12
REMARK SMILES IDX 4 1 5 2 3 3 2 4 1 5 6 6 7 7 8 8 28 9 10 10 27 11 18 12 11 13
REMARK SMILES IDX 17 14 26 15 19 16 12 17 15 18 14 19 9 20 13 21 16 22 20 23
REMARK SMILES IDX 21 24 25 25 22 26 24 27 23 28
REMARK H PARENT
ROOT
ATOM      1  C   UNL     1       4.001  -0.027   0.707  1.00  0.00     0.326 C 
ATOM      2  O   UNL     1       4.675  -1.009   0.245  1.00  0.00    -0.250 OA
ENDROOT
BRANCH   1   3
ATOM      3  O   UNL     1       4.232   1.215   0.143  1.00  0.00    -0.465 OA
BRANCH   3   4
ATOM      4  C   UNL     1       5.163   1.440  -0.900  1.00  0.00     0.229 C 
ATOM      5  C   UNL     1       6.568   1.068  -0.481  1.00  0.00     0.049 C 
ENDBRANCH   3   4
ENDBRANCH   1   3
BRANCH   1   6
ATOM      6  C   UNL     1       3.041  -0.291   1.793  1.00  0.00     0.251 C 
BRANCH   6   7
ATOM      7  N   UNL     1       1.692  -0.538   1.314  1.00  0.00    -0.265 N 
ATOM      8  C   UNL     1       1.323  -1.782   1.016  1.00  0.00     0.263 A 
ATOM      9  C   UNL     1       0.799   0.442   1.164  1.00  0.00     0.239 A 
ATOM     10  C   UNL     1       0.006  -1.961   0.572  1.00  0.00     0.065 A 
ATOM     11  N   UNL     1       1.062   1.779   1.322  1.00  0.00    -0.110 NA
ATOM     12  N   UNL     1      -0.475   0.294   0.733  1.00  0.00    -0.260 N 
ATOM     13  C   UNL     1      -0.332  -3.263   0.303  1.00  0.00     0.019 A 
ATOM     14  C   UNL     1      -0.884  -0.921   0.442  1.00  0.00     0.066 A 
ATOM     15  N   UNL     1      -0.026   2.413   0.976  1.00  0.00    -0.128 NA
ATOM     16  C   UNL     1      -1.008   1.484   0.590  1.00  0.00     0.170 A 
ATOM     17  C   UNL     1      -1.603  -3.527  -0.097  1.00  0.00    -0.050 A 
ATOM     18  C   UNL     1      -2.167  -1.198   0.059  1.00  0.00    -0.026 A 
ATOM     19  C   UNL     1      -2.502  -2.516  -0.212  1.00  0.00     0.009 A 
ATOM     20  O   UNL     1       2.122  -2.750   1.128  1.00  0.00    -0.268 OA
ATOM     21  C   UNL     1      -2.036  -4.901  -0.421  1.00  0.00     0.044 C 
ATOM     22  C   UNL     1      -3.316  -0.286   0.183  1.00  0.00     0.046 C 
BRANCH  16  23
ATOM     23  C   UNL     1      -2.148   2.108  -0.014  1.00  0.00     0.020 A 
ATOM     24  C   UNL     1      -3.150   2.811   0.670  1.00  0.00     0.012 A 
ATOM     25  C   UNL     1      -2.195   2.145  -1.433  1.00  0.00     0.012 A 
ATOM     26  C   UNL     1      -4.134   3.506  -0.004  1.00  0.00     0.001 A 
ATOM     27  C   UNL     1      -3.195   2.851  -2.072  1.00  0.00     0.001 A 
ATOM     28  C   UNL     1      -4.171   3.536  -1.385  1.00  0.00     0.000 A 
ENDBRANCH  16  23
ENDBRANCH   6   7
ENDBRANCH   1   6
TORSDOF 5
