REMARK SMILES COC(=O)N(C)CCC1=C(C(C)c2ccc(C)nc2)SCCCS1
REMARK SMILES IDX 8 1 7 2 5 3 6 4 3 5 4 6 2 7 1 8 9 9 10 10 11 11 12 12 13 13
REMARK SMILES IDX 14 14 19 15 15 16 18 17 16 18 17 19 20 20 21 21 24 23 23 24
REMARK SMILES IDX 22 25
REMARK H PARENT
REMARK Flexibility Score:   79.900
ROOT
ATOM      1  C   UNL     1      -1.852   0.976   0.720  1.00  0.00     0.065 C 
ENDROOT
BRANCH   1   2
ATOM      2  C   UNL     1      -2.355   1.039  -0.724  1.00  0.00     0.128 C 
BRANCH   2   3
ATOM      3  N   UNL     1      -3.670   0.432  -0.813  1.00  0.00    -0.311 N 
ATOM      4  C   UNL     1      -4.839   1.247  -0.624  1.00  0.00     0.150 C 
BRANCH   3   5
ATOM      5  C   UNL     1      -3.860  -0.951  -1.083  1.00  0.00     0.409 C 
ATOM      6  O   UNL     1      -5.057  -1.353  -1.135  1.00  0.00    -0.224 OA
BRANCH   5   7
ATOM      7  O   UNL     1      -2.825  -1.843  -1.284  1.00  0.00    -0.453 OA
ATOM      8  C   UNL     1      -3.068  -3.228  -1.553  1.00  0.00     0.284 C 
ENDBRANCH   5   7
ENDBRANCH   3   5
ENDBRANCH   2   3
ENDBRANCH   1   2
BRANCH   1   9
ATOM      9  C   UNL     1      -0.528   1.575   0.867  1.00  0.00    -0.003 C 
BRANCH   9  10
ATOM     10  C   UNL     1       0.530   0.891   1.261  1.00  0.00     0.002 C 
BRANCH  10  11
ATOM     11  C   UNL     1       0.450  -0.543   1.583  1.00  0.00     0.055 C 
ATOM     12  C   UNL     1       0.789  -0.737   3.034  1.00  0.00     0.018 C 
BRANCH  11  13
ATOM     13  C   UNL     1       1.478  -1.270   0.746  1.00  0.00    -0.022 A 
ATOM     14  C   UNL     1       2.818  -1.231   1.041  1.00  0.00     0.008 A 
ATOM     15  C   UNL     1       1.107  -2.004  -0.369  1.00  0.00     0.115 A 
ATOM     16  C   UNL     1       3.751  -1.900   0.248  1.00  0.00     0.024 A 
ATOM     17  N   UNL     1       2.022  -2.649  -1.128  1.00  0.00    -0.261 NA
ATOM     18  C   UNL     1       3.333  -2.620  -0.855  1.00  0.00     0.037 A 
ATOM     19  C   UNL     1       4.357  -3.319  -1.672  1.00  0.00     0.066 C 
ENDBRANCH  11  13
ENDBRANCH  10  11
BRANCH  10  20
ATOM     20  S   UNL     1       2.206   1.554   1.484  1.00  0.00    -0.129 SA
BRANCH  20  21
ATOM     21  C   UNL     1       2.219   3.330   1.114  1.00  0.00     0.075 CG0
ATOM     22  G   UNL     1       2.112   3.564  -0.367  1.00  0.00     0.000 G0
ENDBRANCH  20  21
ENDBRANCH  10  20
ENDBRANCH   9  10
BRANCH   9  23
ATOM     23  S   UNL     1      -0.532   3.349   0.443  1.00  0.00    -0.130 SA
BRANCH  23  24
ATOM     24  C   UNL     1       0.688   3.719  -0.834  1.00  0.00     0.075 C 
BRANCH  24  25
ATOM     25  C   UNL     1       2.112   3.564  -0.367  1.00  0.00     0.022 CG0
ATOM     26  G   UNL     1       2.219   3.330   1.114  1.00  0.00     0.000 G0
ENDBRANCH  24  25
ENDBRANCH  23  24
ENDBRANCH   9  23
ENDBRANCH   1   9
TORSDOF 7
