REMARK SMILES O=C(CCc1ccc(S(=O)(=O)N2CCOCC2)cc1)Nc1ccccc1CO
REMARK SMILES IDX 1 1 2 2 20 3 3 5 4 6 5 7 6 8 19 9 7 10 18 11 8 12 9 13 10 14
REMARK SMILES IDX 11 15 12 16 13 17 17 18 14 19 16 20 15 21 21 22 22 23 26 24
REMARK SMILES IDX 23 25 25 26 24 27 27 28 28 29
REMARK H PARENT 20 4 28 30
ROOT
ATOM      1  O   UNL     1       3.493  -1.428  -1.298  1.00  0.00    -0.275 OA
ATOM      2  C   UNL     1       3.201  -0.493  -0.534  1.00  0.00     0.224 C 
ATOM      3  N   UNL     1       4.147   0.368   0.063  1.00  0.00    -0.326 N 
ATOM      4  H   UNL     1       3.736   1.120   0.694  1.00  0.00     0.169 HD
ENDROOT
BRANCH   2   5
ATOM      5  C   UNL     1       1.729  -0.305  -0.256  1.00  0.00     0.105 C 
BRANCH   5   6
ATOM      6  C   UNL     1       1.028  -1.379  -1.043  1.00  0.00     0.045 C 
BRANCH   6   7
ATOM      7  C   UNL     1      -0.429  -1.364  -0.903  1.00  0.00    -0.047 A 
ATOM      8  C   UNL     1      -1.259  -0.639  -1.738  1.00  0.00     0.005 A 
ATOM      9  C   UNL     1      -1.045  -2.093   0.096  1.00  0.00     0.005 A 
ATOM     10  C   UNL     1      -2.630  -0.645  -1.579  1.00  0.00     0.022 A 
ATOM     11  C   UNL     1      -2.413  -2.115   0.275  1.00  0.00     0.022 A 
ATOM     12  C   UNL     1      -3.213  -1.372  -0.587  1.00  0.00     0.082 A 
BRANCH  12  13
ATOM     13  S   UNL     1      -4.937  -1.439  -0.312  1.00  0.00     0.243 S 
ATOM     14  O   UNL     1      -5.584  -1.224  -1.667  1.00  0.00    -0.207 OA
ATOM     15  O   UNL     1      -5.395  -2.785   0.154  1.00  0.00    -0.207 OA
BRANCH  13  16
ATOM     16  N   UNL     1      -5.428  -0.194   0.775  1.00  0.00    -0.193 NA
ATOM     17  C   UNL     1      -5.161   1.114   0.273  1.00  0.00     0.131 C 
ATOM     18  C   UNL     1      -6.694  -0.404   1.380  1.00  0.00     0.131 C 
ATOM     19  C   UNL     1      -6.379   1.611  -0.471  1.00  0.00     0.177 C 
ATOM     20  C   UNL     1      -7.818   0.445   0.900  1.00  0.00     0.177 C 
ATOM     21  O   UNL     1      -7.417   1.701   0.457  1.00  0.00    -0.379 OA
ENDBRANCH  13  16
ENDBRANCH  12  13
ENDBRANCH   6   7
ENDBRANCH   5   6
ENDBRANCH   2   5
BRANCH   3  22
ATOM     22  C   UNL     1       5.545   0.313  -0.103  1.00  0.00     0.046 A 
ATOM     23  C   UNL     1       6.221  -0.593  -0.878  1.00  0.00     0.026 A 
ATOM     24  C   UNL     1       6.306   1.248   0.569  1.00  0.00     0.001 A 
ATOM     25  C   UNL     1       7.612  -0.597  -1.004  1.00  0.00     0.002 A 
ATOM     26  C   UNL     1       7.676   1.246   0.447  1.00  0.00     0.008 A 
ATOM     27  C   UNL     1       8.370   0.343  -0.328  1.00  0.00     0.001 A 
BRANCH  24  28
ATOM     28  C   UNL     1       5.661   2.281   1.442  1.00  0.00     0.193 C 
BRANCH  28  29
ATOM     29  O   UNL     1       6.625   3.096   2.001  1.00  0.00    -0.392 OA
ATOM     30  H   UNL     1       6.995   3.647   1.249  1.00  0.00     0.211 HD
ENDBRANCH  28  29
ENDBRANCH  24  28
ENDBRANCH   3  22
TORSDOF 8
