REMARK SMILES OC(CNCc1cccnc1)Cn1c2c(c3ccccc31)CCCC2
REMARK SMILES IDX 3 1 2 2 1 3 12 5 13 6 14 7 21 8 15 9 25 10 20 11 16 12 22 13
REMARK SMILES IDX 24 14 19 15 17 16 23 17 18 18 4 19 5 21 6 22 7 23 11 24 8 25
REMARK SMILES IDX 10 26 9 27
REMARK H PARENT 1 4 4 20
ROOT
ATOM      1  C   UNL     1       1.996  -0.926  -0.903  1.00  0.00     0.114 C 
ENDROOT
BRANCH   1   2
ATOM      2  C   UNL     1       1.275  -1.760   0.096  1.00  0.00     0.148 C 
BRANCH   2   3
ATOM      3  O   UNL     1       1.323  -1.198   1.340  1.00  0.00    -0.390 OA
ATOM      4  H   UNL     1       0.911  -1.817   1.999  1.00  0.00     0.211 HD
ENDBRANCH   2   3
BRANCH   2   5
ATOM      5  C   UNL     1      -0.070  -2.255  -0.314  1.00  0.00     0.155 C 
BRANCH   5   6
ATOM      6  N   UNL     1      -1.123  -1.303  -0.378  1.00  0.00    -0.342 N 
ATOM      7  C   UNL     1      -1.952  -0.952   0.650  1.00  0.00     0.022 A 
ATOM      8  C   UNL     1      -1.519  -0.575  -1.464  1.00  0.00     0.049 A 
ATOM      9  C   UNL     1      -2.858  -0.029   0.253  1.00  0.00    -0.019 A 
ATOM     10  C   UNL     1      -1.969  -1.445   2.062  1.00  0.00     0.054 C 
ATOM     11  C   UNL     1      -1.095  -0.484  -2.772  1.00  0.00     0.027 A 
ATOM     12  C   UNL     1      -2.597   0.225  -1.095  1.00  0.00     0.003 A 
ATOM     13  C   UNL     1      -3.913   0.583   1.091  1.00  0.00     0.038 C 
ATOM     14  C   UNL     1      -3.353  -1.305   2.653  1.00  0.00     0.007 C 
ATOM     15  C   UNL     1      -1.682   0.347  -3.702  1.00  0.00     0.002 A 
ATOM     16  C   UNL     1      -3.202   1.074  -2.030  1.00  0.00     0.010 A 
ATOM     17  C   UNL     1      -3.915   0.069   2.485  1.00  0.00     0.005 C 
ATOM     18  C   UNL     1      -2.746   1.135  -3.327  1.00  0.00     0.001 A 
ENDBRANCH   5   6
ENDBRANCH   2   5
ENDBRANCH   1   2
BRANCH   1  19
ATOM     19  N   UNL     1       1.542   0.411  -1.076  1.00  0.00    -0.310 NA
ATOM     20  H   UNL     1       1.851   0.786  -1.997  1.00  0.00     0.123 HD
BRANCH  19  21
ATOM     21  C   UNL     1       1.811   1.344  -0.020  1.00  0.00     0.118 C 
BRANCH  21  22
ATOM     22  C   UNL     1       3.279   1.568   0.150  1.00  0.00    -0.016 A 
ATOM     23  C   UNL     1       4.062   0.855   1.023  1.00  0.00     0.008 A 
ATOM     24  C   UNL     1       3.920   2.536  -0.605  1.00  0.00     0.116 A 
ATOM     25  C   UNL     1       5.420   1.110   1.121  1.00  0.00     0.020 A 
ATOM     26  N   UNL     1       5.228   2.796  -0.524  1.00  0.00    -0.264 NA
ATOM     27  C   UNL     1       5.993   2.082   0.345  1.00  0.00     0.111 A 
ENDBRANCH  21  22
ENDBRANCH  19  21
ENDBRANCH   1  19
TORSDOF 7
