REMARK SMILES CCC1(CC)CC(O)C2CC3C4(C)OC(O)C3(C(O2)O4)C2C(C)CCC21
REMARK SMILES IDX 9 1 10 2 11 3 12 4 13 5 14 6 15 7 17 8 18 9 19 10 20 11
REMARK SMILES IDX 21 12 26 13 25 14 24 15 22 16 23 17 3 18 2 20 1 21 4 22 5 23
REMARK SMILES IDX 16 24 7 26 6 27 8 29
REMARK H PARENT 16 25 8 30
REMARK Flexibility Score:    7.900
ROOT
ATOM      1  C   UNL     1       1.031   2.152  -0.759  1.00  0.00     0.150 C 
ATOM      2  C   UNL     1       1.792   1.907   0.507  1.00  0.00     0.045 C 
ATOM      3  C   UNL     1       2.217   0.514   0.717  1.00  0.00     0.068 C 
ATOM      4  C   UNL     1       3.548   0.416  -0.075  1.00  0.00     0.175 C 
ATOM      5  C   UNL     1       4.501   1.490   0.372  1.00  0.00     0.076 C 
ATOM      6  O   UNL     1       3.874  -0.836   0.370  1.00  0.00    -0.320 OA
ATOM      7  C   UNL     1       2.755  -1.563  -0.118  1.00  0.00     0.262 C 
ATOM      8  C   UNL     1       1.612  -0.551  -0.139  1.00  0.00     0.084 C 
ATOM      9  C   UNL     1       1.805   0.099  -1.474  1.00  0.00     0.265 C 
ATOM     10  O   UNL     1       0.972   1.176  -1.675  1.00  0.00    -0.346 OA
ATOM     11  O   UNL     1       3.130   0.523  -1.375  1.00  0.00    -0.320 OA
ENDROOT
BRANCH   8  12
ATOM     12  C   UNL     1       0.289  -1.071   0.186  1.00  0.00     0.012 C 
ATOM     13  C   UNL     1      -0.935  -0.582  -0.446  1.00  0.00    -0.000 C 
ATOM     14  C   UNL     1      -1.782  -1.858  -0.592  1.00  0.00     0.005 C 
ATOM     15  C   UNL     1      -0.710  -2.707  -1.308  1.00  0.00     0.004 C 
ATOM     16  C   UNL     1       0.350  -2.553  -0.232  1.00  0.00    -0.010 C 
ATOM     17  C   UNL     1       0.055  -3.492   0.888  1.00  0.00     0.008 C 
BRANCH  13  18
ATOM     18  C   UNL     1      -1.782   0.466   0.134  1.00  0.00    -0.025 CG0
ATOM     19  G   UNL     1      -1.074   1.751   0.554  1.00  0.00     0.000 G0
BRANCH  18  20
ATOM     20  C   UNL     1      -2.495   0.121   1.439  1.00  0.00     0.004 C 
ATOM     21  C   UNL     1      -3.474  -0.952   1.500  1.00  0.00     0.004 C 
ENDBRANCH  18  20
BRANCH  18  22
ATOM     22  C   UNL     1      -2.850   0.818  -0.908  1.00  0.00     0.004 C 
ATOM     23  C   UNL     1      -3.700   1.986  -0.563  1.00  0.00     0.004 C 
ENDBRANCH  18  22
ENDBRANCH  13  18
ENDBRANCH   8  12
BRANCH   7  24
ATOM     24  O   UNL     1       3.218  -1.899  -1.392  1.00  0.00    -0.367 OA
ATOM     25  H   UNL     1       3.607  -2.795  -1.297  1.00  0.00     0.213 HD
ENDBRANCH   7  24
BRANCH   1  26
ATOM     26  C   UNL     1      -0.345   2.593  -0.328  1.00  0.00     0.144 C 
BRANCH  26  27
ATOM     27  C   UNL     1      -1.074   1.751   0.554  1.00  0.00     0.041 CG0
ATOM     28  G   UNL     1      -1.782   0.466   0.134  1.00  0.00     0.000 G0
ENDBRANCH  26  27
BRANCH  26  29
ATOM     29  O   UNL     1       0.010   3.785   0.432  1.00  0.00    -0.390 OA
ATOM     30  H   UNL     1       0.296   4.473  -0.204  1.00  0.00     0.211 HD
ENDBRANCH  26  29
ENDBRANCH   1  26
TORSDOF 4
