REMARK SMILES CC(=O)OCC12C(OC(C)=O)CC(OC(C)=O)C1(C)C1CCC3(C)C(=CC(=O)OC3c3ccoc3)C1(C)C2OC(C)=O
REMARK SMILES IDX 6 1 7 2 12 3 13 4 18 5 19 6 20 7 21 8 22 9 23 10 24 11 25 12
REMARK SMILES IDX 26 13 27 14 28 15 29 16 30 17 36 18 37 19 38 20 5 21 4 22
REMARK SMILES IDX 2 23 1 24 3 25 8 26 9 27 10 28 11 29 39 30 40 31 41 32 42 33
REMARK SMILES IDX 14 34 15 35 16 36 17 37 31 38 32 39 35 40 33 41 34 42
REMARK H PARENT
ROOT
ATOM      1  C   UNL     1      -1.156   0.041  -0.609  1.00  0.00     0.089 C 
ATOM      2  C   UNL     1      -1.762  -0.810   0.524  1.00  0.00     0.194 C 
ATOM      3  C   UNL     1      -2.614   0.116   1.292  1.00  0.00     0.092 C 
ATOM      4  C   UNL     1      -1.931   1.431   1.193  1.00  0.00     0.187 C 
ATOM      5  C   UNL     1      -1.000   1.415  -0.022  1.00  0.00     0.025 C 
ATOM      6  C   UNL     1      -1.340   2.581  -0.805  1.00  0.00     0.017 C 
ATOM      7  C   UNL     1       0.367   1.245   0.482  1.00  0.00     0.013 C 
ATOM      8  C   UNL     1       1.123   2.124   1.334  1.00  0.00     0.006 C 
ATOM      9  C   UNL     1       2.110   1.254   2.177  1.00  0.00     0.016 C 
ATOM     10  C   UNL     1       2.713   0.167   1.316  1.00  0.00     0.031 C 
ATOM     11  C   UNL     1       2.220  -1.220   1.623  1.00  0.00     0.020 C 
ATOM     12  C   UNL     1       2.493   0.635  -0.100  1.00  0.00    -0.043 C 
ATOM     13  C   UNL     1       3.459   1.213  -0.807  1.00  0.00     0.094 C 
ATOM     14  C   UNL     1       4.752   1.405  -0.161  1.00  0.00     0.331 C 
ATOM     15  O   UNL     1       5.703   1.952  -0.826  1.00  0.00    -0.247 OA
ATOM     16  O   UNL     1       5.002   1.029   1.123  1.00  0.00    -0.453 OA
ATOM     17  C   UNL     1       4.177   0.037   1.662  1.00  0.00     0.220 C 
ATOM     18  C   UNL     1       1.135   0.613  -0.665  1.00  0.00     0.031 C 
ATOM     19  C   UNL     1       1.115   1.350  -1.985  1.00  0.00     0.020 C 
ATOM     20  C   UNL     1       0.261  -0.512  -0.889  1.00  0.00     0.200 C 
ENDROOT
BRANCH   1  21
ATOM     21  C   UNL     1      -2.121  -0.116  -1.719  1.00  0.00     0.248 C 
BRANCH  21  22
ATOM     22  O   UNL     1      -3.433   0.355  -1.336  1.00  0.00    -0.465 OA
BRANCH  22  23
ATOM     23  C   UNL     1      -4.479   0.292  -2.240  1.00  0.00     0.302 C 
ATOM     24  C   UNL     1      -5.798   0.789  -1.793  1.00  0.00     0.139 C 
ATOM     25  O   UNL     1      -4.297  -0.171  -3.393  1.00  0.00    -0.253 OA
ENDBRANCH  22  23
ENDBRANCH  21  22
ENDBRANCH   1  21
BRANCH   2  26
ATOM     26  O   UNL     1      -2.468  -1.911  -0.028  1.00  0.00    -0.462 OA
BRANCH  26  27
ATOM     27  C   UNL     1      -2.124  -3.220   0.250  1.00  0.00     0.302 C 
ATOM     28  C   UNL     1      -2.874  -4.350  -0.338  1.00  0.00     0.139 C 
ATOM     29  O   UNL     1      -1.160  -3.511   1.014  1.00  0.00    -0.253 OA
ENDBRANCH  26  27
ENDBRANCH   2  26
BRANCH  20  30
ATOM     30  O   UNL     1       0.299  -1.050  -2.209  1.00  0.00    -0.461 OA
BRANCH  30  31
ATOM     31  C   UNL     1       0.538  -2.399  -2.365  1.00  0.00     0.302 C 
ATOM     32  C   UNL     1       0.566  -2.913  -3.778  1.00  0.00     0.139 C 
ATOM     33  O   UNL     1       0.729  -3.203  -1.419  1.00  0.00    -0.253 OA
ENDBRANCH  30  31
ENDBRANCH  20  30
BRANCH   4  34
ATOM     34  O   UNL     1      -2.838   2.519   1.158  1.00  0.00    -0.462 OA
BRANCH  34  35
ATOM     35  C   UNL     1      -2.818   3.460   2.140  1.00  0.00     0.302 C 
ATOM     36  C   UNL     1      -3.761   4.637   2.151  1.00  0.00     0.139 C 
ATOM     37  O   UNL     1      -2.000   3.407   3.116  1.00  0.00    -0.253 OA
ENDBRANCH  34  35
ENDBRANCH   4  34
BRANCH  17  38
ATOM     38  C   UNL     1       4.738  -1.315   1.369  1.00  0.00     0.032 A 
ATOM     39  C   UNL     1       5.055  -2.357   2.203  1.00  0.00     0.049 A 
ATOM     40  C   UNL     1       5.054  -1.780   0.089  1.00  0.00     0.202 A 
ATOM     41  C   UNL     1       5.538  -3.390   1.426  1.00  0.00     0.195 A 
ATOM     42  O   UNL     1       5.522  -3.008   0.169  1.00  0.00    -0.472 OA
ENDBRANCH  17  38
TORSDOF 10
