REMARK SMILES Cc1cc(C=CC(=O)C2=C(OC(C)C)CC3(C)C4(C)CCC(O)C(C)(C)C4CC(OC(=O)c4ccccc4)C23O)cc(C)c1O
REMARK SMILES IDX 6 1 5 2 4 3 2 4 3 5 44 6 42 7 41 8 1 9 43 10 45 11 7 13 8 14
REMARK SMILES IDX 9 15 10 16 39 17 15 18 29 19 16 20 28 21 18 22 27 23 20 24
REMARK SMILES IDX 24 25 21 26 22 27 17 28 19 29 25 30 26 31 11 32 12 33 13 34
REMARK SMILES IDX 14 35 40 36 30 38 31 39 32 40 33 41 34 42 38 43 35 44 37 45
REMARK SMILES IDX 36 46 23 47
REMARK H PARENT 45 12 40 37 23 48
ROOT
ATOM      1  C   UNL     1       2.648   0.925  -0.148  1.00  0.00     0.053 C 
ENDROOT
BRANCH   1   2
ATOM      2  C   UNL     1       3.607   0.252   0.410  1.00  0.00     0.012 C 
BRANCH   2   3
ATOM      3  C   UNL     1       4.915   0.860   0.795  1.00  0.00    -0.025 A 
ATOM      4  C   UNL     1       7.123   0.590   1.759  1.00  0.00    -0.008 A 
ATOM      5  C   UNL     1       5.900   0.089   1.387  1.00  0.00     0.015 A 
ATOM      6  C   UNL     1       7.420   1.918   1.550  1.00  0.00     0.121 A 
ATOM      7  C   UNL     1       6.450   2.694   0.964  1.00  0.00    -0.008 A 
ATOM      8  C   UNL     1       5.204   2.182   0.584  1.00  0.00     0.015 A 
ATOM      9  C   UNL     1       8.133  -0.301   2.388  1.00  0.00     0.048 C 
ATOM     10  C   UNL     1       6.760   4.149   0.727  1.00  0.00     0.048 C 
BRANCH   6  11
ATOM     11  O   UNL     1       8.621   2.496   1.895  1.00  0.00    -0.507 OA
ATOM     12  H   UNL     1       9.176   2.275   2.698  1.00  0.00     0.293 HD
ENDBRANCH   6  11
ENDBRANCH   2   3
ENDBRANCH   1   2
BRANCH   1  13
ATOM     13  C   UNL     1       1.347   0.641  -0.614  1.00  0.00     0.188 C 
ATOM     14  O   UNL     1       0.747   1.715  -1.101  1.00  0.00    -0.289 OA
BRANCH  13  15
ATOM     15  C   UNL     1       0.499  -0.534  -0.708  1.00  0.00     0.073 C 
ATOM     16  C   UNL     1       0.761  -1.796  -0.403  1.00  0.00     0.107 C 
ATOM     17  C   UNL     1      -0.909  -0.482  -1.152  1.00  0.00     0.140 C 
ATOM     18  C   UNL     1      -0.403  -2.683  -0.680  1.00  0.00     0.086 C 
ATOM     19  C   UNL     1      -1.852   0.531  -0.732  1.00  0.00     0.214 C 
ATOM     20  C   UNL     1      -1.504  -1.737  -0.489  1.00  0.00     0.017 C 
ATOM     21  C   UNL     1      -3.102   0.318  -1.617  1.00  0.00     0.053 C 
ATOM     22  C   UNL     1      -2.803  -2.156  -1.131  1.00  0.00    -0.020 C 
ATOM     23  C   UNL     1      -3.632  -1.069  -1.679  1.00  0.00     0.008 C 
ATOM     24  C   UNL     1      -3.453  -3.107  -0.158  1.00  0.00     0.010 C 
ATOM     25  C   UNL     1      -5.102  -1.103  -1.422  1.00  0.00    -0.006 C 
ATOM     26  C   UNL     1      -4.892  -3.386  -0.586  1.00  0.00     0.033 C 
ATOM     27  C   UNL     1      -5.544  -2.054  -0.343  1.00  0.00     0.120 C 
ATOM     28  C   UNL     1      -1.609  -1.457   0.992  1.00  0.00     0.016 C 
ATOM     29  C   UNL     1      -2.350  -3.155  -2.233  1.00  0.00     0.012 C 
ATOM     30  C   UNL     1      -5.933  -1.534  -2.626  1.00  0.00     0.014 C 
ATOM     31  C   UNL     1      -5.729   0.228  -1.051  1.00  0.00     0.014 C 
BRANCH  16  32
ATOM     32  O   UNL     1       1.930  -2.378   0.108  1.00  0.00    -0.495 OA
BRANCH  32  33
ATOM     33  C   UNL     1       1.961  -3.224   1.212  1.00  0.00     0.166 C 
ATOM     34  C   UNL     1       3.358  -3.855   1.297  1.00  0.00     0.052 C 
ATOM     35  C   UNL     1       1.790  -2.439   2.519  1.00  0.00     0.052 C 
ENDBRANCH  32  33
ENDBRANCH  16  32
BRANCH  17  36
ATOM     36  O   UNL     1      -0.880  -0.610  -2.534  1.00  0.00    -0.380 OA
ATOM     37  H   UNL     1      -0.020  -0.354  -2.951  1.00  0.00     0.212 HD
ENDBRANCH  17  36
BRANCH  19  38
ATOM     38  O   UNL     1      -1.623   1.902  -0.868  1.00  0.00    -0.455 OA
BRANCH  38  39
ATOM     39  C   UNL     1      -1.874   2.723   0.250  1.00  0.00     0.338 C 
ATOM     40  O   UNL     1      -2.287   2.257   1.343  1.00  0.00    -0.246 OA
BRANCH  39  41
ATOM     41  C   UNL     1      -1.659   4.168   0.170  1.00  0.00     0.060 A 
ATOM     42  C   UNL     1      -1.197   4.765  -1.001  1.00  0.00     0.015 A 
ATOM     43  C   UNL     1      -1.913   4.985   1.245  1.00  0.00     0.015 A 
ATOM     44  C   UNL     1      -1.027   6.130  -0.997  1.00  0.00     0.001 A 
ATOM     45  C   UNL     1      -1.743   6.349   1.245  1.00  0.00     0.001 A 
ATOM     46  C   UNL     1      -1.278   6.950   0.067  1.00  0.00     0.000 A 
ENDBRANCH  39  41
ENDBRANCH  38  39
ENDBRANCH  19  38
BRANCH  27  47
ATOM     47  O   UNL     1      -6.936  -2.144  -0.363  1.00  0.00    -0.393 OA
ATOM     48  H   UNL     1      -7.159  -3.084  -0.614  1.00  0.00     0.210 HD
ENDBRANCH  27  47
ENDBRANCH  13  15
ENDBRANCH   1  13
TORSDOF 12
