REMARK SMILES CCCCCCCC#Cc1nc2c(ncn2C2COC(CO)O2)c(=NC)[nH]1
REMARK SMILES IDX 7 1 6 2 5 3 4 4 3 5 2 6 1 7 8 8 9 9 10 10 11 11 27 12 12 13
REMARK SMILES IDX 24 14 13 15 16 16 14 17 15 18 25 20 26 21 17 22 18 23 23 24
REMARK SMILES IDX 19 25 20 26 21 27 22 28
REMARK H PARENT 27 19 22 29
ROOT
ATOM      1  C   UNL     1       2.173  -0.274   1.581  1.00  0.00     0.090 C 
ENDROOT
BRANCH   1   2
ATOM      2  C   UNL     1       3.272  -0.152   0.548  1.00  0.00     0.013 C 
BRANCH   2   3
ATOM      3  C   UNL     1       4.529   0.254   1.328  1.00  0.00     0.001 C 
BRANCH   3   4
ATOM      4  C   UNL     1       5.650   0.380   0.287  1.00  0.00     0.000 C 
BRANCH   4   5
ATOM      5  C   UNL     1       6.882   0.780   1.070  1.00  0.00    -0.000 C 
BRANCH   5   6
ATOM      6  C   UNL     1       8.086   0.943   0.157  1.00  0.00    -0.003 C 
ATOM      7  C   UNL     1       7.755   2.029  -0.859  1.00  0.00     0.004 C 
ENDBRANCH   5   6
ENDBRANCH   4   5
ENDBRANCH   3   4
ENDBRANCH   2   3
ENDBRANCH   1   2
BRANCH   1   8
ATOM      8  C   UNL     1       0.898  -0.660   0.974  1.00  0.00    -0.095 C 
BRANCH   8   9
ATOM      9  C   UNL     1      -0.164  -0.996   0.483  1.00  0.00    -0.028 C 
BRANCH   9  10
ATOM     10  C   UNL     1      -1.433  -1.415  -0.084  1.00  0.00     0.186 A 
ATOM     11  N   UNL     1      -2.522  -0.621  -0.054  1.00  0.00    -0.202 NA
ATOM     12  N   UNL     1      -1.473  -2.654  -0.652  1.00  0.00    -0.316 N 
ATOM     13  C   UNL     1      -3.699  -1.042  -0.595  1.00  0.00     0.168 A 
ATOM     14  C   UNL     1      -2.609  -3.111  -1.197  1.00  0.00     0.157 A 
ATOM     15  C   UNL     1      -3.730  -2.302  -1.169  1.00  0.00     0.150 A 
ATOM     16  N   UNL     1      -4.911  -0.489  -0.709  1.00  0.00    -0.286 N 
ATOM     17  N   UNL     1      -4.990  -2.500  -1.635  1.00  0.00    -0.231 NA
ATOM     18  C   UNL     1      -5.681  -1.391  -1.344  1.00  0.00     0.204 A 
ATOM     19  H   UNL     1      -0.629  -3.237  -0.661  1.00  0.00     0.170 HD
BRANCH  14  20
ATOM     20  N   UNL     1      -2.730  -4.268  -1.752  1.00  0.00    -0.270 NA
ATOM     21  C   UNL     1      -1.604  -5.200  -1.834  1.00  0.00     0.174 C 
ENDBRANCH  14  20
BRANCH  16  22
ATOM     22  C   UNL     1      -5.329   0.819  -0.248  1.00  0.00     0.251 C 
ATOM     23  C   UNL     1      -5.448   0.916   1.244  1.00  0.00     0.219 C 
ATOM     24  O   UNL     1      -4.502   1.844  -0.644  1.00  0.00    -0.324 OA
ATOM     25  O   UNL     1      -4.869   2.145   1.553  1.00  0.00    -0.345 OA
ATOM     26  C   UNL     1      -4.645   2.790   0.352  1.00  0.00     0.278 C 
BRANCH  26  27
ATOM     27  C   UNL     1      -5.750   3.788   0.096  1.00  0.00     0.218 C 
BRANCH  27  28
ATOM     28  O   UNL     1      -6.999   3.173   0.032  1.00  0.00    -0.391 OA
ATOM     29  H   UNL     1      -7.493   3.472  -0.759  1.00  0.00     0.210 HD
ENDBRANCH  27  28
ENDBRANCH  26  27
ENDBRANCH  16  22
ENDBRANCH   9  10
ENDBRANCH   8   9
ENDBRANCH   1   8
TORSDOF 12
