REMARK SMILES CCCCc1ccc(Cn2c(C(=O)O)cc3ccccc32)cc1
REMARK SMILES IDX 5 1 6 2 7 3 8 4 22 5 23 6 4 7 3 8 2 9 1 10 9 11 10 12 11 13
REMARK SMILES IDX 21 14 15 15 20 16 16 17 19 18 17 19 18 20 12 21 13 22 14 23
REMARK H PARENT 14 24
ROOT
ATOM      1  C   UNL     1       2.015   0.490  -0.277  1.00  0.00    -0.048 A 
ATOM      2  C   UNL     1       1.474  -0.443  -1.134  1.00  0.00     0.004 A 
ATOM      3  C   UNL     1       0.288  -1.098  -0.801  1.00  0.00     0.006 A 
ATOM      4  C   UNL     1      -0.395  -0.867   0.362  1.00  0.00    -0.028 A 
ATOM      5  C   UNL     1       0.167   0.084   1.224  1.00  0.00     0.006 A 
ATOM      6  C   UNL     1       1.353   0.739   0.889  1.00  0.00     0.004 A 
ENDROOT
BRANCH   1   7
ATOM      7  C   UNL     1       3.278   1.161  -0.675  1.00  0.00     0.035 C 
BRANCH   7   8
ATOM      8  C   UNL     1       4.431   0.310  -0.133  1.00  0.00     0.004 C 
BRANCH   8   9
ATOM      9  C   UNL     1       5.765   0.904  -0.482  1.00  0.00    -0.003 C 
ATOM     10  C   UNL     1       6.891   0.037   0.069  1.00  0.00     0.004 C 
ENDBRANCH   8   9
ENDBRANCH   7   8
ENDBRANCH   1   7
BRANCH   4  11
ATOM     11  C   UNL     1      -1.650  -1.541   0.766  1.00  0.00     0.158 C 
BRANCH  11  12
ATOM     12  N   UNL     1      -2.845  -0.947   0.205  1.00  0.00    -0.331 N 
ATOM     13  C   UNL     1      -3.469  -1.320  -0.924  1.00  0.00     0.128 A 
ATOM     14  C   UNL     1      -3.505   0.119   0.721  1.00  0.00     0.049 A 
ATOM     15  C   UNL     1      -4.557  -0.464  -1.139  1.00  0.00     0.044 A 
ATOM     16  C   UNL     1      -3.357   0.921   1.834  1.00  0.00     0.027 A 
ATOM     17  C   UNL     1      -4.583   0.442  -0.105  1.00  0.00     0.000 A 
ATOM     18  C   UNL     1      -4.200   1.972   2.130  1.00  0.00     0.002 A 
ATOM     19  C   UNL     1      -5.435   1.490   0.177  1.00  0.00     0.010 A 
ATOM     20  C   UNL     1      -5.255   2.269   1.299  1.00  0.00     0.001 A 
BRANCH  13  21
ATOM     21  C   UNL     1      -3.200  -2.432  -1.827  1.00  0.00     0.352 C 
ATOM     22  O   UNL     1      -3.894  -2.609  -2.889  1.00  0.00    -0.245 OA
BRANCH  21  23
ATOM     23  O   UNL     1      -2.202  -3.370  -1.623  1.00  0.00    -0.477 OA
ATOM     24  H   UNL     1      -1.719  -3.880  -2.361  1.00  0.00     0.297 HD
ENDBRANCH  21  23
ENDBRANCH  13  21
ENDBRANCH  11  12
ENDBRANCH   4  11
TORSDOF 7
