REMARK SMILES CN=c1cc(N2CCC(C(=O)N=c3[nH]ccs3)CC2)nc[nH]1
REMARK SMILES IDX 6 1 7 2 8 3 9 4 18 5 19 6 5 7 3 8 4 9 22 10 21 11 20 12 2 14
REMARK SMILES IDX 1 15 10 16 11 17 12 18 13 19 14 20 17 21 15 22 16 23
REMARK H PARENT 22 13 14 24
ROOT
ATOM      1  N   UNL     1      -0.939   0.119  -0.145  1.00  0.00    -0.356 N 
ATOM      2  C   UNL     1       0.006  -0.244  -1.193  1.00  0.00     0.119 C 
ATOM      3  C   UNL     1       1.364   0.385  -0.997  1.00  0.00     0.035 C 
ATOM      4  C   UNL     1       1.943   0.098   0.362  1.00  0.00     0.084 C 
ATOM      5  C   UNL     1       0.943   0.102   1.458  1.00  0.00     0.035 C 
ATOM      6  C   UNL     1      -0.419   0.633   1.082  1.00  0.00     0.119 C 
ENDROOT
BRANCH   1   7
ATOM      7  C   UNL     1      -2.329  -0.054  -0.386  1.00  0.00     0.133 A 
ATOM      8  C   UNL     1      -4.655   0.084   0.264  1.00  0.00     0.129 A 
ATOM      9  C   UNL     1      -3.303   0.270   0.541  1.00  0.00     0.093 A 
ATOM     10  N   UNL     1      -4.981  -0.422  -0.937  1.00  0.00    -0.331 N 
ATOM     11  C   UNL     1      -4.049  -0.745  -1.859  1.00  0.00     0.200 A 
ATOM     12  N   UNL     1      -2.765  -0.554  -1.558  1.00  0.00    -0.221 NA
ATOM     13  H   UNL     1      -5.965  -0.580  -1.196  1.00  0.00     0.169 HD
BRANCH   8  14
ATOM     14  N   UNL     1      -5.514   0.398   1.151  1.00  0.00    -0.272 NA
ATOM     15  C   UNL     1      -6.920   0.201   0.855  1.00  0.00     0.174 C 
ENDBRANCH   8  14
ENDBRANCH   1   7
BRANCH   4  16
ATOM     16  C   UNL     1       2.638  -1.231   0.374  1.00  0.00     0.251 C 
ATOM     17  O   UNL     1       2.280  -2.167   1.141  1.00  0.00    -0.272 OA
BRANCH  16  18
ATOM     18  N   UNL     1       3.734  -1.452  -0.503  1.00  0.00    -0.185 NA
BRANCH  18  19
ATOM     19  C   UNL     1       4.856  -0.936  -0.232  1.00  0.00     0.190 A 
ATOM     20  N   UNL     1       6.012  -0.984  -0.867  1.00  0.00    -0.337 N 
ATOM     21  S   UNL     1       5.159   0.110   1.267  1.00  0.00    -0.105 S 
ATOM     22  C   UNL     1       7.065  -0.377  -0.421  1.00  0.00     0.096 A 
ATOM     23  C   UNL     1       6.915   0.344   0.787  1.00  0.00     0.086 A 
ATOM     24  H   UNL     1       6.061  -1.558  -1.795  1.00  0.00     0.168 HD
ENDBRANCH  18  19
ENDBRANCH  16  18
ENDBRANCH   4  16
TORSDOF 5
