REMARK SMILES CN(C)C(=O)CN1CCCCC(NC(=O)c2sc3ccccc3c2Cl)C1=O
REMARK SMILES IDX 26 1 27 2 7 3 6 4 4 5 2 6 1 7 3 8 5 9 8 10 12 12 11 13 10 14
REMARK SMILES IDX 9 15 13 17 14 18 15 20 16 21 17 22 24 23 18 24 23 25 19 26
REMARK SMILES IDX 22 27 20 28 21 29 25 30
REMARK H PARENT 13 19
REMARK Flexibility Score:   75.900
ROOT
ATOM      1  C   UNL     1      -1.182  -1.021   0.249  1.00  0.00     0.245 C 
ATOM      2  O   UNL     1      -0.898  -0.038   1.012  1.00  0.00    -0.272 OA
ENDROOT
BRANCH   1   3
ATOM      3  N   UNL     1      -2.505  -1.034  -0.259  1.00  0.00    -0.332 N 
BRANCH   3   4
ATOM      4  C   UNL     1      -3.128   0.259  -0.365  1.00  0.00     0.219 C 
BRANCH   4   5
ATOM      5  C   UNL     1      -3.831   0.555   0.893  1.00  0.00     0.241 C 
ATOM      6  N   UNL     1      -4.524   1.810   0.989  1.00  0.00    -0.347 N 
ATOM      7  C   UNL     1      -4.542   2.766  -0.104  1.00  0.00     0.146 C 
ATOM      8  C   UNL     1      -5.249   2.189   2.199  1.00  0.00     0.146 C 
ATOM      9  O   UNL     1      -3.853  -0.231   1.875  1.00  0.00    -0.273 OA
ENDBRANCH   4   5
ENDBRANCH   3   4
BRANCH   3  10
ATOM     10  C   UNL     1      -3.240  -2.216  -0.663  1.00  0.00     0.120 CG0
ATOM     11  G   UNL     1      -2.654  -2.830  -1.915  1.00  0.00     0.000 G0
ENDBRANCH   3  10
ENDBRANCH   1   3
BRANCH   1  12
ATOM     12  C   UNL     1      -0.024  -1.934   0.079  1.00  0.00     0.171 C 
BRANCH  12  13
ATOM     13  C   UNL     1      -0.335  -2.926  -0.975  1.00  0.00     0.035 C 
BRANCH  13  14
ATOM     14  C   UNL     1      -1.198  -2.417  -2.099  1.00  0.00     0.004 C 
BRANCH  14  15
ATOM     15  C   UNL     1      -2.654  -2.830  -1.915  1.00  0.00     0.022 CG0
ATOM     16  G   UNL     1      -3.240  -2.216  -0.663  1.00  0.00     0.000 G0
ENDBRANCH  14  15
ENDBRANCH  13  14
ENDBRANCH  12  13
BRANCH  12  17
ATOM     17  N   UNL     1       1.138  -1.119  -0.139  1.00  0.00    -0.339 N 
ATOM     18  C   UNL     1       2.188  -1.065   0.789  1.00  0.00     0.263 C 
ATOM     19  H   UNL     1       1.185  -0.562  -1.012  1.00  0.00     0.164 HD
ATOM     20  O   UNL     1       2.034  -1.793   1.840  1.00  0.00    -0.268 OA
BRANCH  18  21
ATOM     21  C   UNL     1       3.397  -0.278   0.662  1.00  0.00     0.112 A 
ATOM     22  S   UNL     1       4.573  -0.378   1.966  1.00  0.00    -0.128 S 
ATOM     23  C   UNL     1       3.915   0.563  -0.224  1.00  0.00     0.072 A 
ATOM     24  C   UNL     1       5.749   0.783   1.189  1.00  0.00     0.037 A 
ATOM     25  C   UNL     1       5.121   1.131   0.007  1.00  0.00     0.012 A 
ATOM     26  C   UNL     1       6.966   1.236   1.622  1.00  0.00     0.020 A 
ATOM     27  C   UNL     1       5.871   2.043  -0.770  1.00  0.00     0.011 A 
ATOM     28  C   UNL     1       7.678   2.125   0.844  1.00  0.00     0.002 A 
ATOM     29  C   UNL     1       7.089   2.500  -0.345  1.00  0.00     0.001 A 
ATOM     30  Cl  UNL     1       3.005   0.948  -1.741  1.00  0.00    -0.082 Cl
ENDBRANCH  18  21
ENDBRANCH  12  17
ENDBRANCH   1  12
TORSDOF 4
