REMARK SMILES COc1cc(C(=O)N=c2nccc[nH]2)cc(OC)c1OC
REMARK SMILES IDX 6 1 7 2 5 3 3 4 4 5 19 6 16 7 15 8 2 9 1 10 20 11 21 12
REMARK SMILES IDX 17 13 18 14 8 15 9 16 10 17 14 18 11 19 13 20 12 21
REMARK H PARENT 14 22
ROOT
ATOM      1  C   UNL     1       1.257  -0.233  -1.014  1.00  0.00     0.280 C 
ATOM      2  O   UNL     1       1.682  -0.406  -2.188  1.00  0.00    -0.267 OA
ENDROOT
BRANCH   1   3
ATOM      3  C   UNL     1      -0.191  -0.160  -0.716  1.00  0.00     0.049 A 
ATOM      4  C   UNL     1      -2.330   0.801  -0.958  1.00  0.00     0.165 A 
ATOM      5  C   UNL     1      -0.992   0.805  -1.291  1.00  0.00     0.064 A 
ATOM      6  C   UNL     1      -2.831  -0.151  -0.071  1.00  0.00     0.203 A 
ATOM      7  C   UNL     1      -2.024  -1.114   0.501  1.00  0.00     0.165 A 
ATOM      8  C   UNL     1      -0.667  -1.108   0.162  1.00  0.00     0.064 A 
BRANCH   4   9
ATOM      9  O   UNL     1      -3.229   1.711  -1.466  1.00  0.00    -0.493 OA
ATOM     10  C   UNL     1      -2.762   2.693  -2.368  1.00  0.00     0.278 C 
ENDBRANCH   4   9
BRANCH   6  11
ATOM     11  O   UNL     1      -4.197  -0.158   0.271  1.00  0.00    -0.490 OA
ATOM     12  C   UNL     1      -4.617   0.614   1.405  1.00  0.00     0.278 C 
ENDBRANCH   6  11
BRANCH   7  13
ATOM     13  O   UNL     1      -2.573  -2.021   1.364  1.00  0.00    -0.493 OA
ATOM     14  C   UNL     1      -1.926  -3.051   2.030  1.00  0.00     0.278 C 
ENDBRANCH   7  13
ENDBRANCH   1   3
BRANCH   1  15
ATOM     15  N   UNL     1       2.118  -0.095   0.113  1.00  0.00    -0.172 NA
BRANCH  15  16
ATOM     16  C   UNL     1       3.382  -0.024   0.000  1.00  0.00     0.230 A 
ATOM     17  N   UNL     1       4.027  -0.073  -1.191  1.00  0.00    -0.221 NA
ATOM     18  N   UNL     1       4.098   0.107   1.148  1.00  0.00    -0.331 N 
ATOM     19  C   UNL     1       5.375   0.010  -1.211  1.00  0.00     0.116 A 
ATOM     20  C   UNL     1       5.440   0.190   1.149  1.00  0.00     0.087 A 
ATOM     21  C   UNL     1       6.129   0.143  -0.054  1.00  0.00     0.038 A 
ATOM     22  H   UNL     1       3.616   0.146   2.069  1.00  0.00     0.169 HD
ENDBRANCH  15  16
ENDBRANCH   1  15
TORSDOF 6
