REMARK SMILES Cc1noc2nc(C=NC#N)c3c(c12)-c1ccc(Cl)cc1C(c1ccccc1Br)NC3
REMARK SMILES IDX 8 1 7 2 2 3 3 4 14 5 4 6 13 7 5 8 12 9 15 10 6 11 31 12
REMARK SMILES IDX 16 13 21 14 30 15 17 16 20 17 22 18 18 19 1 20 19 22 23 23
REMARK SMILES IDX 24 24 28 25 25 26 27 27 26 28 29 29 9 30 10 31 11 32
REMARK H PARENT 30 21
ROOT
ATOM      1  C   UNL     1       2.746  -3.498   0.580  1.00  0.00     0.153 C 
ENDROOT
BRANCH   1   2
ATOM      2  C   UNL     1       2.729  -2.049   0.525  1.00  0.00     0.091 A 
ATOM      3  C   UNL     1       2.884   2.100   0.515  1.00  0.00     0.091 A 
ATOM      4  N   UNL     1       4.140   2.182   1.072  1.00  0.00    -0.082 NA
ATOM      5  C   UNL     1       2.668   0.763   0.414  1.00  0.00     0.073 A 
ATOM      6  O   UNL     1       4.627   0.994   1.295  1.00  0.00    -0.336 OA
ATOM      7  C   UNL     1       1.661  -0.033  -0.017  1.00  0.00     0.003 A 
ATOM      8  C   UNL     1       3.789   0.057   0.929  1.00  0.00     0.259 A 
ATOM      9  C   UNL     1       1.613  -1.421   0.014  1.00  0.00     0.002 A 
ATOM     10  C   UNL     1       0.694   0.764  -0.794  1.00  0.00    -0.012 A 
ATOM     11  N   UNL     1       3.782  -1.291   0.963  1.00  0.00    -0.209 NA
ATOM     12  C   UNL     1       0.484  -2.299  -0.339  1.00  0.00     0.120 C 
ATOM     13  C   UNL     1       1.329   1.699  -1.591  1.00  0.00     0.010 A 
ATOM     14  C   UNL     1      -0.672   0.573  -0.749  1.00  0.00    -0.017 A 
ATOM     15  N   UNL     1      -0.762  -1.749  -0.639  1.00  0.00    -0.302 NA
ATOM     16  C   UNL     1       0.458   2.479  -2.373  1.00  0.00     0.021 A 
ATOM     17  C   UNL     1      -1.498   1.316  -1.494  1.00  0.00     0.026 A 
ATOM     18  C   UNL     1      -1.282  -0.588   0.014  1.00  0.00     0.117 C 
ATOM     19  C   UNL     1      -0.913   2.291  -2.322  1.00  0.00     0.041 A 
ATOM     20  C   UNL     1       2.068   3.316   0.358  1.00  0.00     0.071 C 
ATOM     21  H   UNL     1      -1.023  -1.782  -1.662  1.00  0.00     0.123 HD
ATOM     22  Cl  UNL     1      -1.976   3.276  -3.304  1.00  0.00    -0.084 Cl
BRANCH  18  23
ATOM     23  C   UNL     1      -2.698  -0.476   0.215  1.00  0.00    -0.012 A 
ATOM     24  C   UNL     1      -3.187   0.696   0.820  1.00  0.00     0.007 A 
ATOM     25  C   UNL     1      -3.667  -1.401  -0.116  1.00  0.00     0.023 A 
ATOM     26  C   UNL     1      -4.523   0.885   1.055  1.00  0.00     0.000 A 
ATOM     27  C   UNL     1      -5.012  -1.212   0.119  1.00  0.00     0.016 A 
ATOM     28  C   UNL     1      -5.455  -0.065   0.708  1.00  0.00     0.001 A 
ATOM     29  Br  UNL     1      -3.146  -3.041  -0.929  1.00  0.00    -0.050 Br
ENDBRANCH  18  23
ENDBRANCH   1   2
BRANCH   1  30
ATOM     30  N   UNL     1       3.124  -4.116   1.647  1.00  0.00    -0.179 NA
BRANCH  30  31
ATOM     31  C   UNL     1       3.539  -3.507   2.815  1.00  0.00     0.205 C 
ATOM     32  N   UNL     1       3.885  -2.992   3.784  1.00  0.00    -0.170 NA
ENDBRANCH  30  31
ENDBRANCH   1  30
TORSDOF 4
