REMARK SMILES CCC(=C(CC)c1ccc(OC(C)=O)c(OC(C)=O)c1)c1ccccc1
REMARK SMILES IDX 7 1 8 2 9 3 10 4 15 5 20 6 4 7 3 8 2 9 1 10 21 11 22 12
REMARK SMILES IDX 26 13 23 14 25 15 24 16 5 17 6 18 16 19 17 20 18 21 19 22
REMARK SMILES IDX 11 23 12 24 13 25 14 26
REMARK H PARENT
ROOT
ATOM      1  C   UNL     1      -0.026   0.631   0.706  1.00  0.00    -0.018 A 
ATOM      2  C   UNL     1       0.089   1.172  -0.533  1.00  0.00     0.012 A 
ATOM      3  C   UNL     1       1.220   1.025  -1.337  1.00  0.00     0.052 A 
ATOM      4  C   UNL     1       2.283   0.292  -0.851  1.00  0.00     0.173 A 
ATOM      5  C   UNL     1       2.209  -0.276   0.406  1.00  0.00     0.174 A 
ATOM      6  C   UNL     1       1.069  -0.107   1.174  1.00  0.00     0.059 A 
ENDROOT
BRANCH   1   7
ATOM      7  C   UNL     1      -1.201   0.764   1.570  1.00  0.00    -0.037 C 
BRANCH   7   8
ATOM      8  C   UNL     1      -2.426   0.632   1.085  1.00  0.00    -0.037 C 
BRANCH   8   9
ATOM      9  C   UNL     1      -3.665   0.797   1.882  1.00  0.00     0.033 C 
ATOM     10  C   UNL     1      -4.518   1.971   1.494  1.00  0.00     0.009 C 
ENDBRANCH   8   9
BRANCH   8  11
ATOM     11  C   UNL     1      -2.576   0.216  -0.301  1.00  0.00    -0.022 A 
ATOM     12  C   UNL     1      -3.414   0.791  -1.216  1.00  0.00     0.008 A 
ATOM     13  C   UNL     1      -1.841  -0.888  -0.758  1.00  0.00     0.008 A 
ATOM     14  C   UNL     1      -3.547   0.330  -2.526  1.00  0.00     0.001 A 
ATOM     15  C   UNL     1      -1.959  -1.359  -2.048  1.00  0.00     0.001 A 
ATOM     16  C   UNL     1      -2.813  -0.755  -2.945  1.00  0.00     0.000 A 
ENDBRANCH   8  11
ENDBRANCH   7   8
BRANCH   7  17
ATOM     17  C   UNL     1      -0.897   1.096   2.991  1.00  0.00     0.033 C 
ATOM     18  C   UNL     1      -0.096   2.375   3.100  1.00  0.00     0.009 C 
ENDBRANCH   7  17
ENDBRANCH   1   7
BRANCH   5  19
ATOM     19  O   UNL     1       3.277  -1.030   0.932  1.00  0.00    -0.423 OA
BRANCH  19  20
ATOM     20  C   UNL     1       3.322  -2.421   0.757  1.00  0.00     0.308 C 
ATOM     21  C   UNL     1       4.475  -3.152   1.337  1.00  0.00     0.139 C 
ATOM     22  O   UNL     1       2.401  -3.001   0.124  1.00  0.00    -0.252 OA
ENDBRANCH  19  20
ENDBRANCH   5  19
BRANCH   4  23
ATOM     23  O   UNL     1       3.429   0.124  -1.624  1.00  0.00    -0.423 OA
BRANCH  23  24
ATOM     24  C   UNL     1       3.611  -0.920  -2.519  1.00  0.00     0.308 C 
ATOM     25  C   UNL     1       4.898  -0.957  -3.271  1.00  0.00     0.139 C 
ATOM     26  O   UNL     1       2.755  -1.816  -2.717  1.00  0.00    -0.252 OA
ENDBRANCH  23  24
ENDBRANCH   4  23
TORSDOF 9
