REMARK SMILES COC(=O)C1CC(COC(=O)Cc2ccc(O)cc2)OC1=O
REMARK SMILES IDX 9 1 8 2 7 3 5 4 6 5 21 6 20 7 22 8 3 9 4 10 2 11 1 12 10 13
REMARK SMILES IDX 11 14 12 15 13 16 14 17 19 18 15 19 18 20 16 21 17 22
REMARK H PARENT 17 23
ROOT
ATOM      1  O   UNL     1      -0.360  -2.341  -0.855  1.00  0.00    -0.461 OA
ENDROOT
BRANCH   1   2
ATOM      2  C   UNL     1       0.628  -3.096  -0.241  1.00  0.00     0.278 C 
BRANCH   2   3
ATOM      3  C   UNL     1       1.737  -2.345   0.398  1.00  0.00     0.215 C 
ATOM      4  C   UNL     1       3.292  -0.644   0.407  1.00  0.00     0.212 C 
ATOM      5  C   UNL     1       2.417  -1.378  -0.581  1.00  0.00     0.076 C 
ATOM      6  C   UNL     1       2.298  -0.401   1.496  1.00  0.00     0.320 C 
ATOM      7  O   UNL     1       1.394  -1.466   1.424  1.00  0.00    -0.458 OA
ATOM      8  O   UNL     1       2.284   0.562   2.303  1.00  0.00    -0.251 OA
BRANCH   4   9
ATOM      9  C   UNL     1       3.833   0.619  -0.158  1.00  0.00     0.320 C 
ATOM     10  O   UNL     1       3.570   1.008  -1.338  1.00  0.00    -0.251 OA
BRANCH   9  11
ATOM     11  O   UNL     1       4.654   1.375   0.669  1.00  0.00    -0.468 OA
ATOM     12  C   UNL     1       5.228   2.595   0.247  1.00  0.00     0.282 C 
ENDBRANCH   9  11
ENDBRANCH   4   9
ENDBRANCH   2   3
ENDBRANCH   1   2
BRANCH   1  13
ATOM     13  C   UNL     1      -1.201  -1.416  -0.270  1.00  0.00     0.310 C 
ATOM     14  O   UNL     1      -1.139  -1.163   0.953  1.00  0.00    -0.252 OA
BRANCH  13  15
ATOM     15  C   UNL     1      -2.182  -0.736  -1.174  1.00  0.00     0.158 C 
BRANCH  15  16
ATOM     16  C   UNL     1      -3.019   0.226  -0.430  1.00  0.00    -0.037 A 
ATOM     17  C   UNL     1      -2.690   1.555  -0.251  1.00  0.00     0.008 A 
ATOM     18  C   UNL     1      -4.206  -0.216   0.126  1.00  0.00     0.008 A 
ATOM     19  C   UNL     1      -3.522   2.419   0.463  1.00  0.00     0.046 A 
ATOM     20  C   UNL     1      -5.047   0.619   0.836  1.00  0.00     0.046 A 
ATOM     21  C   UNL     1      -4.696   1.961   1.007  1.00  0.00     0.115 A 
BRANCH  21  22
ATOM     22  O   UNL     1      -5.559   2.785   1.728  1.00  0.00    -0.508 OA
ATOM     23  H   UNL     1      -6.551   2.657   1.625  1.00  0.00     0.293 HD
ENDBRANCH  21  22
ENDBRANCH  15  16
ENDBRANCH  13  15
ENDBRANCH   1  13
TORSDOF 8
