REMARK SMILES O=C(NN=Cc1ccc2c(c1)OCO2)C1CC1c1ccccc1
REMARK SMILES IDX 1 1 2 2 3 3 15 5 16 6 17 7 18 8 19 9 23 10 20 11 22 12 21 13
REMARK SMILES IDX 4 14 5 15 6 16 7 17 11 18 8 19 10 20 9 21 12 22 14 23 13 24
REMARK H PARENT 3 4
ROOT
ATOM      1  O   UNL     1      -0.415   2.105  -0.493  1.00  0.00    -0.273 OA
ATOM      2  C   UNL     1      -0.898   0.984  -0.824  1.00  0.00     0.243 C 
ATOM      3  N   UNL     1      -0.057  -0.183  -0.916  1.00  0.00    -0.247 N 
ATOM      4  H   UNL     1      -0.466  -1.111  -1.192  1.00  0.00     0.193 HD
ENDROOT
BRANCH   2   5
ATOM      5  C   UNL     1      -2.331   0.777  -1.138  1.00  0.00     0.088 C 
ATOM      6  C   UNL     1      -2.787  -0.166  -2.183  1.00  0.00     0.023 C 
ATOM      7  C   UNL     1      -2.982  -0.534  -0.783  1.00  0.00     0.032 C 
BRANCH   7   8
ATOM      8  C   UNL     1      -4.262  -0.398  -0.063  1.00  0.00    -0.044 A 
ATOM      9  C   UNL     1      -4.538  -1.245   1.016  1.00  0.00     0.004 A 
ATOM     10  C   UNL     1      -5.226   0.517  -0.377  1.00  0.00     0.004 A 
ATOM     11  C   UNL     1      -5.718  -1.161   1.723  1.00  0.00     0.000 A 
ATOM     12  C   UNL     1      -6.425   0.647   0.295  1.00  0.00     0.000 A 
ATOM     13  C   UNL     1      -6.657  -0.215   1.359  1.00  0.00     0.000 A 
ENDBRANCH   7   8
ENDBRANCH   2   5
BRANCH   3  14
ATOM     14  N   UNL     1       1.302  -0.152  -0.654  1.00  0.00    -0.181 NA
BRANCH  14  15
ATOM     15  C   UNL     1       1.837   0.140   0.472  1.00  0.00     0.141 C 
BRANCH  15  16
ATOM     16  C   UNL     1       3.300   0.141   0.636  1.00  0.00    -0.002 A 
ATOM     17  C   UNL     1       3.901   0.452   1.842  1.00  0.00     0.014 A 
ATOM     18  C   UNL     1       4.089  -0.184  -0.469  1.00  0.00     0.060 A 
ATOM     19  C   UNL     1       5.280   0.434   1.926  1.00  0.00     0.051 A 
ATOM     20  C   UNL     1       5.467  -0.205  -0.398  1.00  0.00     0.166 A 
ATOM     21  C   UNL     1       6.055   0.107   0.809  1.00  0.00     0.165 A 
ATOM     22  O   UNL     1       6.443  -0.494  -1.352  1.00  0.00    -0.454 OA
ATOM     23  O   UNL     1       7.441   0.010   0.606  1.00  0.00    -0.454 OA
ATOM     24  C   UNL     1       7.695  -0.199  -0.755  1.00  0.00     0.468 C 
ENDBRANCH  15  16
ENDBRANCH  14  15
ENDBRANCH   3  14
TORSDOF 5
