REMARK SMILES Cc1onc(-c2ccccc2)c1COc1ccc2c(n1)CN(C(=O)C1CCCCC1)CC2
REMARK SMILES IDX 14 1 13 2 12 3 2 4 3 5 4 6 5 7 1 8 6 9 7 10 11 11 8 12 10 13
REMARK SMILES IDX 9 14 15 15 16 16 20 17 17 18 19 19 18 20 21 21 32 22 22 23
REMARK SMILES IDX 31 24 23 25 24 26 25 27 26 28 30 29 27 30 29 31 28 32
REMARK H PARENT
ROOT
ATOM      1  O   UNL     1       2.942   0.133   1.520  1.00  0.00    -0.473 OA
ENDROOT
BRANCH   1   2
ATOM      2  C   UNL     1       3.562  -1.006   1.026  1.00  0.00     0.273 C 
BRANCH   2   3
ATOM      3  C   UNL     1       4.955  -1.179   1.491  1.00  0.00     0.060 A 
ATOM      4  C   UNL     1       5.363  -1.614   2.731  1.00  0.00     0.140 A 
ATOM      5  O   UNL     1       6.674  -1.608   2.688  1.00  0.00    -0.361 OA
ATOM      6  N   UNL     1       7.133  -1.217   1.561  1.00  0.00    -0.079 NA
ATOM      7  C   UNL     1       6.104  -0.934   0.771  1.00  0.00     0.120 A 
ATOM      8  C   UNL     1       4.539  -2.014   3.890  1.00  0.00     0.091 C 
BRANCH   7   9
ATOM      9  C   UNL     1       6.242  -0.454  -0.598  1.00  0.00     0.004 A 
ATOM     10  C   UNL     1       7.152  -1.044  -1.477  1.00  0.00     0.010 A 
ATOM     11  C   UNL     1       5.465   0.594  -1.025  1.00  0.00     0.010 A 
ATOM     12  C   UNL     1       7.230  -0.533  -2.764  1.00  0.00     0.001 A 
ATOM     13  C   UNL     1       5.552   1.100  -2.325  1.00  0.00     0.001 A 
ATOM     14  C   UNL     1       6.445   0.524  -3.191  1.00  0.00     0.000 A 
ENDBRANCH   7   9
ENDBRANCH   2   3
ENDBRANCH   1   2
BRANCH   1  15
ATOM     15  C   UNL     1       1.671   0.578   1.294  1.00  0.00     0.213 A 
ATOM     16  C   UNL     1       1.293   1.771   1.921  1.00  0.00     0.069 A 
ATOM     17  N   UNL     1       0.784  -0.062   0.514  1.00  0.00    -0.216 NA
ATOM     18  C   UNL     1       0.022   2.298   1.750  1.00  0.00     0.011 A 
ATOM     19  C   UNL     1      -0.474   0.423   0.319  1.00  0.00     0.067 A 
ATOM     20  C   UNL     1      -0.838   1.597   0.940  1.00  0.00    -0.023 A 
ATOM     21  C   UNL     1      -1.379  -0.359  -0.559  1.00  0.00     0.176 C 
ATOM     22  C   UNL     1      -2.212   2.124   0.727  1.00  0.00     0.059 C 
ATOM     23  N   UNL     1      -2.588   0.377  -0.851  1.00  0.00    -0.336 N 
ATOM     24  C   UNL     1      -2.547   1.819  -0.735  1.00  0.00     0.125 C 
BRANCH  23  25
ATOM     25  C   UNL     1      -3.731  -0.363  -1.233  1.00  0.00     0.226 C 
ATOM     26  O   UNL     1      -3.588  -1.628  -1.285  1.00  0.00    -0.275 OA
BRANCH  25  27
ATOM     27  C   UNL     1      -5.044   0.180  -1.571  1.00  0.00     0.078 C 
ATOM     28  C   UNL     1      -5.923  -1.007  -1.950  1.00  0.00     0.013 C 
ATOM     29  C   UNL     1      -5.669   1.064  -0.546  1.00  0.00     0.013 C 
ATOM     30  C   UNL     1      -6.440  -1.770  -0.776  1.00  0.00     0.001 C 
ATOM     31  C   UNL     1      -7.000   0.510  -0.021  1.00  0.00     0.001 C 
ATOM     32  C   UNL     1      -6.676  -0.907   0.441  1.00  0.00     0.000 C 
ENDBRANCH  25  27
ENDBRANCH  23  25
ENDBRANCH   1  15
TORSDOF 6
