REMARK SMILES COC(=O)c1noc(-c2ccc(OC)c(OC)c2)c1OCc1ccc(Cl)cc1
REMARK SMILES IDX 5 1 6 2 7 3 8 4 19 5 3 6 4 7 2 8 1 9 20 10 21 11 22 12 23 13
REMARK SMILES IDX 28 14 24 15 27 16 25 17 26 18 9 19 10 20 18 21 11 22 15 23
REMARK SMILES IDX 12 24 16 25 17 26 13 27 14 28
REMARK H PARENT
ROOT
ATOM      1  C   UNL     1      -0.771  -3.001  -1.445  1.00  0.00     0.233 A 
ATOM      2  N   UNL     1       0.139  -3.428  -2.307  1.00  0.00    -0.068 NA
ATOM      3  O   UNL     1       1.127  -2.625  -2.322  1.00  0.00    -0.351 OA
ATOM      4  C   UNL     1       0.961  -1.623  -1.493  1.00  0.00     0.209 A 
ATOM      5  C   UNL     1      -0.259  -1.829  -0.905  1.00  0.00     0.202 A 
ENDROOT
BRANCH   1   6
ATOM      6  C   UNL     1      -2.044  -3.645  -1.141  1.00  0.00     0.364 C 
ATOM      7  O   UNL     1      -2.301  -4.712  -1.760  1.00  0.00    -0.244 OA
BRANCH   6   8
ATOM      8  O   UNL     1      -2.932  -3.112  -0.216  1.00  0.00    -0.464 OA
ATOM      9  C   UNL     1      -4.181  -3.761   0.070  1.00  0.00     0.282 C 
ENDBRANCH   6   8
ENDBRANCH   1   6
BRANCH   5  10
ATOM     10  O   UNL     1      -0.938  -1.092   0.041  1.00  0.00    -0.482 OA
BRANCH  10  11
ATOM     11  C   UNL     1      -1.870  -0.074  -0.316  1.00  0.00     0.265 C 
BRANCH  11  12
ATOM     12  C   UNL     1      -2.445   0.520   0.908  1.00  0.00    -0.011 A 
ATOM     13  C   UNL     1      -3.582  -0.048   1.485  1.00  0.00     0.009 A 
ATOM     14  C   UNL     1      -1.938   1.629   1.546  1.00  0.00     0.009 A 
ATOM     15  C   UNL     1      -4.157   0.481   2.630  1.00  0.00     0.021 A 
ATOM     16  C   UNL     1      -2.501   2.168   2.689  1.00  0.00     0.021 A 
ATOM     17  C   UNL     1      -3.623   1.589   3.238  1.00  0.00     0.041 A 
ATOM     18  Cl  UNL     1      -4.292   2.307   4.679  1.00  0.00    -0.084 Cl
ENDBRANCH  11  12
ENDBRANCH  10  11
ENDBRANCH   5  10
BRANCH   4  19
ATOM     19  C   UNL     1       1.911  -0.547  -1.285  1.00  0.00     0.028 A 
ATOM     20  C   UNL     1       3.049  -0.558  -2.067  1.00  0.00     0.016 A 
ATOM     21  C   UNL     1       1.766   0.459  -0.361  1.00  0.00     0.062 A 
ATOM     22  C   UNL     1       4.039   0.392  -1.960  1.00  0.00     0.051 A 
ATOM     23  C   UNL     1       2.760   1.438  -0.231  1.00  0.00     0.161 A 
ATOM     24  C   UNL     1       3.900   1.403  -1.036  1.00  0.00     0.160 A 
BRANCH  23  25
ATOM     25  O   UNL     1       2.683   2.470   0.671  1.00  0.00    -0.493 OA
ATOM     26  C   UNL     1       1.679   2.746   1.587  1.00  0.00     0.278 C 
ENDBRANCH  23  25
BRANCH  24  27
ATOM     27  O   UNL     1       4.875   2.382  -0.894  1.00  0.00    -0.493 OA
ATOM     28  C   UNL     1       6.050   2.396  -1.682  1.00  0.00     0.278 C 
ENDBRANCH  24  27
ENDBRANCH   4  19
TORSDOF 8
