REMARK SMILES COc1cc(C=C2C(=O)NC(=S)NC2=O)sc1-c1cc2c(OC)c(OC)c(OC)cc2n1C
REMARK SMILES IDX 3 1 4 2 5 3 16 4 17 5 2 6 1 7 18 8 19 9 32 10 20 11 31 12
REMARK SMILES IDX 21 13 30 14 24 15 27 16 33 17 22 18 23 19 25 20 26 21 28 22
REMARK SMILES IDX 29 23 6 24 7 25 8 26 14 27 10 28 13 29 11 30 9 31 15 32
REMARK SMILES IDX 12 35
REMARK H PARENT 10 33 13 34
ROOT
ATOM      1  C   UNL     1       2.010  -0.807   0.894  1.00  0.00     0.139 A 
ATOM      2  C   UNL     1       3.284  -0.382   0.772  1.00  0.00     0.067 A 
ATOM      3  C   UNL     1       3.554   0.789   0.164  1.00  0.00     0.033 A 
ATOM      4  S   UNL     1       1.871   1.337  -0.270  1.00  0.00    -0.130 S 
ATOM      5  C   UNL     1       1.014  -0.040   0.398  1.00  0.00     0.093 A 
ENDROOT
BRANCH   1   6
ATOM      6  O   UNL     1       1.721  -2.044   1.536  1.00  0.00    -0.495 OA
ATOM      7  C   UNL     1       2.657  -2.905   2.078  1.00  0.00     0.278 C 
ENDBRANCH   1   6
BRANCH   5   8
ATOM      8  C   UNL     1      -0.435  -0.106   0.327  1.00  0.00     0.063 A 
ATOM      9  C   UNL     1      -1.199   0.957  -0.177  1.00  0.00     0.042 A 
ATOM     10  N   UNL     1      -1.314  -1.039   0.648  1.00  0.00    -0.343 N 
ATOM     11  C   UNL     1      -2.540   0.629  -0.146  1.00  0.00     0.047 A 
ATOM     12  C   UNL     1      -2.595  -0.634   0.378  1.00  0.00     0.056 A 
ATOM     13  C   UNL     1      -3.683   1.303  -0.517  1.00  0.00     0.174 A 
ATOM     14  C   UNL     1      -3.838  -1.209   0.521  1.00  0.00     0.077 A 
ATOM     15  C   UNL     1      -4.919   0.711  -0.367  1.00  0.00     0.204 A 
ATOM     16  C   UNL     1      -4.977  -0.562   0.161  1.00  0.00     0.166 A 
ATOM     17  C   UNL     1      -1.061  -2.347   1.199  1.00  0.00     0.150 C 
BRANCH  13  18
ATOM     18  O   UNL     1      -3.601   2.584  -1.047  1.00  0.00    -0.492 OA
ATOM     19  C   UNL     1      -3.472   2.695  -2.451  1.00  0.00     0.278 C 
ENDBRANCH  13  18
BRANCH  15  20
ATOM     20  O   UNL     1      -6.105   1.346  -0.725  1.00  0.00    -0.490 OA
ATOM     21  C   UNL     1      -6.836   2.150   0.178  1.00  0.00     0.278 C 
ENDBRANCH  15  20
BRANCH  16  22
ATOM     22  O   UNL     1      -6.206  -1.153   0.312  1.00  0.00    -0.493 OA
ATOM     23  C   UNL     1      -6.435  -2.429   0.828  1.00  0.00     0.278 C 
ENDBRANCH  16  22
ENDBRANCH   5   8
BRANCH   3  24
ATOM     24  C   UNL     1       4.672   1.567  -0.193  1.00  0.00     0.038 C 
BRANCH  24  25
ATOM     25  C   UNL     1       5.771   1.219  -0.827  1.00  0.00     0.106 C 
ATOM     26  C   UNL     1       6.061  -0.118  -1.318  1.00  0.00     0.263 C 
ATOM     27  C   UNL     1       6.843   2.220  -1.068  1.00  0.00     0.263 C 
ATOM     28  N   UNL     1       7.294  -0.444  -1.984  1.00  0.00    -0.299 N 
ATOM     29  N   UNL     1       8.050   1.869  -1.729  1.00  0.00    -0.299 N 
ATOM     30  C   UNL     1       8.292   0.547  -2.192  1.00  0.00     0.180 C 
ATOM     31  O   UNL     1       5.245  -1.044  -1.181  1.00  0.00    -0.269 OA
ATOM     32  O   UNL     1       6.714   3.412  -0.693  1.00  0.00    -0.269 OA
ATOM     33  H   UNL     1       7.457  -1.429  -2.320  1.00  0.00     0.172 HD
ATOM     34  H   UNL     1       8.817   2.574  -1.905  1.00  0.00     0.172 HD
ATOM     35  S   UNL     1       9.691   0.182  -2.946  1.00  0.00    -0.040 S 
ENDBRANCH  24  25
ENDBRANCH   3  24
TORSDOF 7
