REMARK SMILES COc1ccc([N+](=O)[O-])cc1N(C(=O)C(F)(F)F)C(C)C(=O)NCc1ccc(F)cc1
REMARK SMILES IDX 19 1 20 2 12 3 11 4 3 5 4 6 5 7 10 8 6 9 2 10 1 11 7 12 8 13
REMARK SMILES IDX 9 14 13 15 14 16 15 17 16 18 17 19 18 20 21 21 23 22 22 23
REMARK SMILES IDX 24 25 25 26 26 27 31 28 27 29 30 30 28 31 29 32
REMARK H PARENT 23 24
ROOT
ATOM      1  C   UNL     1       0.349  -1.552   0.561  1.00  0.00     0.177 C 
ATOM      2  C   UNL     1       0.415  -3.018   0.922  1.00  0.00     0.042 C 
ENDROOT
BRANCH   1   3
ATOM      3  N   UNL     1      -0.907  -1.258   0.002  1.00  0.00    -0.289 N 
BRANCH   3   4
ATOM      4  C   UNL     1      -1.851  -0.376   0.664  1.00  0.00     0.094 A 
ATOM      5  C   UNL     1      -2.776  -0.820   1.549  1.00  0.00     0.143 A 
ATOM      6  C   UNL     1      -3.628   0.134   2.118  1.00  0.00     0.056 A 
ATOM      7  C   UNL     1      -3.515   1.481   1.776  1.00  0.00     0.089 A 
ATOM      8  C   UNL     1      -1.728   0.960   0.315  1.00  0.00     0.115 A 
ATOM      9  C   UNL     1      -2.549   1.900   0.859  1.00  0.00     0.271 A 
BRANCH   5  10
ATOM     10  O   UNL     1      -2.861  -2.165   1.868  1.00  0.00    -0.495 OA
ATOM     11  C   UNL     1      -3.861  -2.554   2.808  1.00  0.00     0.278 C 
ENDBRANCH   5  10
BRANCH   9  12
ATOM     12  N   UNL     1      -2.441   3.276   0.517  1.00  0.00     0.062 N 
ATOM     13  O   UNL     1      -1.570   3.619  -0.301  1.00  0.00    -0.258 OA
ATOM     14  O   UNL     1      -3.275   4.228   1.067  1.00  0.00    -0.258 OA
ENDBRANCH   9  12
ENDBRANCH   3   4
BRANCH   3  15
ATOM     15  C   UNL     1      -1.323  -1.798  -1.242  1.00  0.00     0.333 C 
ATOM     16  O   UNL     1      -0.523  -2.596  -1.845  1.00  0.00    -0.264 OA
BRANCH  15  17
ATOM     17  C   UNL     1      -2.651  -1.465  -1.858  1.00  0.00     0.471 C 
ATOM     18  F   UNL     1      -2.689  -0.078  -2.055  1.00  0.00    -0.162 F 
ATOM     19  F   UNL     1      -2.690  -2.074  -3.094  1.00  0.00    -0.162 F 
ATOM     20  F   UNL     1      -3.675  -1.850  -1.043  1.00  0.00    -0.162 F 
ENDBRANCH  15  17
ENDBRANCH   3  15
ENDBRANCH   1   3
BRANCH   1  21
ATOM     21  C   UNL     1       1.585  -1.193  -0.123  1.00  0.00     0.243 C 
ATOM     22  N   UNL     1       1.647  -0.463  -1.343  1.00  0.00    -0.350 N 
ATOM     23  O   UNL     1       2.682  -1.566   0.425  1.00  0.00    -0.273 OA
ATOM     24  H   UNL     1       0.732  -0.175  -1.752  1.00  0.00     0.163 HD
BRANCH  22  25
ATOM     25  C   UNL     1       2.841  -0.102  -2.029  1.00  0.00     0.151 C 
BRANCH  25  26
ATOM     26  C   UNL     1       3.593   1.029  -1.455  1.00  0.00    -0.029 A 
ATOM     27  C   UNL     1       4.599   0.903  -0.522  1.00  0.00     0.008 A 
ATOM     28  C   UNL     1       3.270   2.311  -1.876  1.00  0.00     0.008 A 
ATOM     29  C   UNL     1       5.273   1.993  -0.012  1.00  0.00     0.039 A 
ATOM     30  C   UNL     1       3.934   3.432  -1.378  1.00  0.00     0.039 A 
ATOM     31  C   UNL     1       4.943   3.263  -0.439  1.00  0.00     0.123 A 
ATOM     32  F   UNL     1       5.599   4.337   0.058  1.00  0.00    -0.207 F 
ENDBRANCH  25  26
ENDBRANCH  22  25
ENDBRANCH   1  21
TORSDOF 9
