REMARK SMILES Cc1nc(=NC(C)c2cccc(OCc3ccccc3)c2)cc(-c2ccc(F)cc2)[nH]1
REMARK SMILES IDX 6 1 7 2 5 3 4 4 2 5 3 6 31 7 23 8 22 9 1 10 24 12 25 13
REMARK SMILES IDX 30 14 26 15 29 16 27 17 28 18 8 19 9 20 21 21 10 22 12 23
REMARK SMILES IDX 11 24 13 25 14 26 15 27 16 28 20 29 17 30 19 31 18 32
REMARK H PARENT 31 11
ROOT
ATOM      1  C   UNL     1      -0.103  -1.187  -1.132  1.00  0.00     0.135 C 
ATOM      2  C   UNL     1      -0.044  -0.171  -2.256  1.00  0.00     0.038 C 
ENDROOT
BRANCH   1   3
ATOM      3  N   UNL     1      -1.069  -0.688  -0.156  1.00  0.00    -0.259 NA
BRANCH   3   4
ATOM      4  C   UNL     1      -2.260  -0.481  -0.626  1.00  0.00     0.151 A 
ATOM      5  C   UNL     1      -3.798  -0.500  -2.405  1.00  0.00     0.105 A 
ATOM      6  N   UNL     1      -2.542  -0.723  -1.926  1.00  0.00    -0.217 NA
ATOM      7  N   UNL     1      -4.770  -0.037  -1.581  1.00  0.00    -0.343 N 
ATOM      8  C   UNL     1      -4.560   0.225  -0.278  1.00  0.00     0.050 A 
ATOM      9  C   UNL     1      -3.287  -0.002   0.200  1.00  0.00     0.075 A 
ATOM     10  C   UNL     1      -4.094  -0.769  -3.832  1.00  0.00     0.087 C 
ATOM     11  H   UNL     1      -5.698   0.107  -2.020  1.00  0.00     0.168 HD
BRANCH   8  12
ATOM     12  C   UNL     1      -5.605   0.724   0.609  1.00  0.00    -0.002 A 
ATOM     13  C   UNL     1      -5.394   0.993   1.945  1.00  0.00     0.013 A 
ATOM     14  C   UNL     1      -6.893   0.957   0.140  1.00  0.00     0.013 A 
ATOM     15  C   UNL     1      -6.403   1.469   2.780  1.00  0.00     0.040 A 
ATOM     16  C   UNL     1      -7.900   1.432   0.972  1.00  0.00     0.040 A 
ATOM     17  C   UNL     1      -7.671   1.691   2.288  1.00  0.00     0.123 A 
ATOM     18  F   UNL     1      -8.663   2.154   3.085  1.00  0.00    -0.207 F 
ENDBRANCH   8  12
ENDBRANCH   3   4
ENDBRANCH   1   3
BRANCH   1  19
ATOM     19  C   UNL     1       1.228  -1.419  -0.536  1.00  0.00    -0.020 A 
ATOM     20  C   UNL     1       1.906  -2.579  -0.829  1.00  0.00     0.006 A 
ATOM     21  C   UNL     1       1.772  -0.476   0.301  1.00  0.00     0.052 A 
ATOM     22  C   UNL     1       3.146  -2.785  -0.269  1.00  0.00     0.004 A 
ATOM     23  C   UNL     1       3.041  -0.652   0.894  1.00  0.00     0.120 A 
ATOM     24  C   UNL     1       3.672  -1.824   0.569  1.00  0.00     0.046 A 
BRANCH  23  25
ATOM     25  O   UNL     1       3.470   0.339   1.694  1.00  0.00    -0.489 OA
BRANCH  25  26
ATOM     26  C   UNL     1       4.583   0.584   2.430  1.00  0.00     0.265 C 
BRANCH  26  27
ATOM     27  C   UNL     1       5.878   0.686   1.728  1.00  0.00    -0.011 A 
ATOM     28  C   UNL     1       6.208   1.919   1.156  1.00  0.00     0.007 A 
ATOM     29  C   UNL     1       6.805  -0.305   1.603  1.00  0.00     0.007 A 
ATOM     30  C   UNL     1       7.410   2.089   0.507  1.00  0.00     0.000 A 
ATOM     31  C   UNL     1       8.017  -0.150   0.955  1.00  0.00     0.000 A 
ATOM     32  C   UNL     1       8.339   1.068   0.390  1.00  0.00     0.000 A 
ENDBRANCH  26  27
ENDBRANCH  25  26
ENDBRANCH  23  25
ENDBRANCH   1  19
TORSDOF 7
