REMARK SMILES CCOC(=O)Nc1cc(=O)n(-c2ccc(C)c(-c3ccccc3)n2)[nH]1
REMARK SMILES IDX 4 1 5 2 6 3 3 5 2 6 1 7 7 8 8 9 25 10 9 11 11 12 10 14 12 15
REMARK SMILES IDX 13 16 24 17 14 18 17 19 15 20 16 21 18 22 19 23 23 24 20 25
REMARK SMILES IDX 22 26 21 27
REMARK H PARENT 6 4 25 13
ROOT
ATOM      1  C   UNL     1       5.203   0.105   0.183  1.00  0.00     0.412 C 
ATOM      2  O   UNL     1       5.110   0.282   1.406  1.00  0.00    -0.224 OA
ATOM      3  N   UNL     1       4.071  -0.159  -0.600  1.00  0.00    -0.276 N 
ATOM      4  H   UNL     1       4.234  -0.299  -1.638  1.00  0.00     0.175 HD
ENDROOT
BRANCH   1   5
ATOM      5  O   UNL     1       6.465   0.175  -0.390  1.00  0.00    -0.450 OA
BRANCH   5   6
ATOM      6  C   UNL     1       7.645   0.431   0.308  1.00  0.00     0.231 C 
ATOM      7  C   UNL     1       7.675   1.751   1.024  1.00  0.00     0.049 C 
ENDBRANCH   5   6
ENDBRANCH   1   5
BRANCH   3   8
ATOM      8  C   UNL     1       2.743  -0.249  -0.103  1.00  0.00     0.133 A 
ATOM      9  C   UNL     1       2.311  -0.102   1.197  1.00  0.00     0.120 A 
ATOM     10  N   UNL     1       1.641  -0.499  -0.821  1.00  0.00    -0.274 N 
ATOM     11  C   UNL     1       0.944  -0.275   1.194  1.00  0.00     0.274 A 
ATOM     12  N   UNL     1       0.574  -0.518  -0.074  1.00  0.00    -0.200 N 
ATOM     13  H   UNL     1       1.659  -0.658  -1.863  1.00  0.00     0.190 HD
ATOM     14  O   UNL     1       0.175  -0.216   2.199  1.00  0.00    -0.267 OA
BRANCH  12  15
ATOM     15  C   UNL     1      -0.745  -0.761  -0.576  1.00  0.00     0.155 A 
ATOM     16  C   UNL     1      -0.900  -1.589  -1.669  1.00  0.00     0.049 A 
ATOM     17  N   UNL     1      -1.834  -0.211  -0.018  1.00  0.00    -0.228 NA
ATOM     18  C   UNL     1      -2.139  -1.869  -2.208  1.00  0.00     0.009 A 
ATOM     19  C   UNL     1      -3.086  -0.450  -0.505  1.00  0.00     0.076 A 
ATOM     20  C   UNL     1      -3.241  -1.277  -1.597  1.00  0.00    -0.025 A 
ATOM     21  C   UNL     1      -4.589  -1.537  -2.129  1.00  0.00     0.047 C 
BRANCH  19  22
ATOM     22  C   UNL     1      -4.179   0.203   0.183  1.00  0.00     0.000 A 
ATOM     23  C   UNL     1      -5.354  -0.421   0.542  1.00  0.00     0.010 A 
ATOM     24  C   UNL     1      -4.081   1.554   0.524  1.00  0.00     0.010 A 
ATOM     25  C   UNL     1      -6.386   0.221   1.197  1.00  0.00     0.001 A 
ATOM     26  C   UNL     1      -5.106   2.204   1.178  1.00  0.00     0.001 A 
ATOM     27  C   UNL     1      -6.277   1.550   1.526  1.00  0.00     0.000 A 
ENDBRANCH  19  22
ENDBRANCH  12  15
ENDBRANCH   3   8
TORSDOF 5
