REMARK SMILES COc1ccc(CN2C(=O)C(c3ccc(OC)c(OC)c3)=C(c3ccc(OC)c(OC)c3)C2=O)cc1OC
REMARK SMILES IDX 8 1 9 2 10 3 11 4 22 5 33 6 34 7 7 8 6 9 3 10 4 11 36 12
REMARK SMILES IDX 5 13 35 14 2 15 1 16 37 17 38 18 12 19 13 20 21 21 14 22
REMARK SMILES IDX 18 23 15 24 19 25 20 26 16 27 17 28 23 29 24 30 32 31 25 32
REMARK SMILES IDX 29 33 26 34 30 35 31 36 27 37 28 38
REMARK H PARENT
ROOT
ATOM      1  N   UNL     1       1.632   0.250   1.752  1.00  0.00    -0.270 N 
ATOM      2  C   UNL     1       0.874  -0.926   1.574  1.00  0.00     0.262 C 
ATOM      3  O   UNL     1       1.307  -2.081   1.811  1.00  0.00    -0.269 OA
ATOM      4  C   UNL     1      -0.498  -0.571   1.069  1.00  0.00     0.061 C 
ATOM      5  C   UNL     1      -0.553   0.725   0.955  1.00  0.00     0.061 C 
ATOM      6  C   UNL     1       0.772   1.311   1.374  1.00  0.00     0.262 C 
ATOM      7  O   UNL     1       1.094   2.512   1.397  1.00  0.00    -0.269 OA
ENDROOT
BRANCH   1   8
ATOM      8  C   UNL     1       2.998   0.430   2.209  1.00  0.00     0.165 C 
BRANCH   8   9
ATOM      9  C   UNL     1       3.948   0.415   1.060  1.00  0.00    -0.024 A 
ATOM     10  C   UNL     1       5.709   0.528  -1.087  1.00  0.00     0.160 A 
ATOM     11  C   UNL     1       5.105   1.702  -0.642  1.00  0.00     0.051 A 
ATOM     12  C   UNL     1       5.447  -0.674  -0.482  1.00  0.00     0.161 A 
ATOM     13  C   UNL     1       4.238   1.626   0.419  1.00  0.00     0.009 A 
ATOM     14  C   UNL     1       4.560  -0.732   0.599  1.00  0.00     0.056 A 
BRANCH  10  15
ATOM     15  O   UNL     1       6.575   0.614  -2.147  1.00  0.00    -0.493 OA
ATOM     16  C   UNL     1       6.884   1.820  -2.812  1.00  0.00     0.278 C 
ENDBRANCH  10  15
BRANCH  12  17
ATOM     17  O   UNL     1       6.084  -1.796  -0.975  1.00  0.00    -0.493 OA
ATOM     18  C   UNL     1       5.810  -3.033  -0.339  1.00  0.00     0.278 C 
ENDBRANCH  12  17
ENDBRANCH   8   9
ENDBRANCH   1   8
BRANCH   4  19
ATOM     19  C   UNL     1      -1.449  -1.635   0.829  1.00  0.00    -0.008 A 
ATOM     20  C   UNL     1      -1.502  -2.635   1.818  1.00  0.00     0.013 A 
ATOM     21  C   UNL     1      -2.257  -1.820  -0.245  1.00  0.00     0.059 A 
ATOM     22  C   UNL     1      -2.310  -3.733   1.720  1.00  0.00     0.051 A 
ATOM     23  C   UNL     1      -3.099  -2.931  -0.385  1.00  0.00     0.161 A 
ATOM     24  C   UNL     1      -3.111  -3.898   0.631  1.00  0.00     0.160 A 
BRANCH  23  25
ATOM     25  O   UNL     1      -3.919  -3.149  -1.441  1.00  0.00    -0.493 OA
ATOM     26  C   UNL     1      -4.015  -2.222  -2.500  1.00  0.00     0.278 C 
ENDBRANCH  23  25
BRANCH  24  27
ATOM     27  O   UNL     1      -3.948  -5.019   0.510  1.00  0.00    -0.493 OA
ATOM     28  C   UNL     1      -3.876  -5.939   1.595  1.00  0.00     0.278 C 
ENDBRANCH  24  27
ENDBRANCH   4  19
BRANCH   5  29
ATOM     29  C   UNL     1      -1.578   1.656   0.524  1.00  0.00    -0.008 A 
ATOM     30  C   UNL     1      -1.922   2.654   1.448  1.00  0.00     0.013 A 
ATOM     31  C   UNL     1      -2.153   1.739  -0.706  1.00  0.00     0.059 A 
ATOM     32  C   UNL     1      -2.795   3.672   1.133  1.00  0.00     0.051 A 
ATOM     33  C   UNL     1      -3.042   2.755  -1.063  1.00  0.00     0.161 A 
ATOM     34  C   UNL     1      -3.346   3.710  -0.123  1.00  0.00     0.160 A 
BRANCH  33  35
ATOM     35  O   UNL     1      -3.626   2.854  -2.298  1.00  0.00    -0.493 OA
ATOM     36  C   UNL     1      -3.420   1.878  -3.329  1.00  0.00     0.278 C 
ENDBRANCH  33  35
BRANCH  34  37
ATOM     37  O   UNL     1      -4.217   4.730  -0.430  1.00  0.00    -0.493 OA
ATOM     38  C   UNL     1      -4.554   5.737   0.531  1.00  0.00     0.278 C 
ENDBRANCH  34  37
ENDBRANCH   5  29
TORSDOF 10
