REMARK SMILES COc1ccc(C(c2ccc(Cl)cc2)c2ccccn2)cc1
REMARK SMILES IDX 3 1 4 2 5 3 6 4 21 5 22 6 2 7 1 8 7 9 8 10 9 11 14 12 10 13
REMARK SMILES IDX 13 14 11 15 12 16 15 17 16 18 20 19 17 20 19 21 18 22
REMARK H PARENT
ROOT
ATOM      1  C   UNL     1       3.263  -0.886  -0.893  1.00  0.00     0.118 A 
ATOM      2  C   UNL     1       2.423  -1.208  -1.951  1.00  0.00     0.047 A 
ATOM      3  C   UNL     1       1.058  -1.051  -1.839  1.00  0.00     0.008 A 
ATOM      4  C   UNL     1       0.475  -0.574  -0.686  1.00  0.00    -0.034 A 
ATOM      5  C   UNL     1       1.335  -0.259   0.359  1.00  0.00     0.008 A 
ATOM      6  C   UNL     1       2.695  -0.409   0.261  1.00  0.00     0.047 A 
ENDROOT
BRANCH   1   7
ATOM      7  O   UNL     1       4.657  -1.038  -0.992  1.00  0.00    -0.497 OA
ATOM      8  C   UNL     1       5.454  -0.683   0.146  1.00  0.00     0.278 C 
ENDBRANCH   1   7
BRANCH   4   9
ATOM      9  C   UNL     1      -0.964  -0.376  -0.481  1.00  0.00     0.098 C 
BRANCH   9  10
ATOM     10  C   UNL     1      -1.468   0.961  -0.833  1.00  0.00    -0.034 A 
ATOM     11  C   UNL     1      -2.145   1.179  -2.032  1.00  0.00     0.006 A 
ATOM     12  C   UNL     1      -1.306   2.077  -0.032  1.00  0.00     0.006 A 
ATOM     13  C   UNL     1      -2.607   2.429  -2.362  1.00  0.00     0.021 A 
ATOM     14  C   UNL     1      -1.771   3.330  -0.365  1.00  0.00     0.021 A 
ATOM     15  C   UNL     1      -2.447   3.538  -1.566  1.00  0.00     0.041 A 
ATOM     16  Cl  UNL     1      -3.046   5.105  -2.020  1.00  0.00    -0.084 Cl
ENDBRANCH   9  10
BRANCH   9  17
ATOM     17  C   UNL     1      -1.434  -0.774   0.854  1.00  0.00     0.052 A 
ATOM     18  C   UNL     1      -2.008  -2.032   1.039  1.00  0.00     0.025 A 
ATOM     19  N   UNL     1      -1.351  -0.008   1.956  1.00  0.00    -0.260 NA
ATOM     20  C   UNL     1      -2.465  -2.482   2.254  1.00  0.00     0.003 A 
ATOM     21  C   UNL     1      -1.788  -0.422   3.151  1.00  0.00     0.111 A 
ATOM     22  C   UNL     1      -2.357  -1.659   3.351  1.00  0.00     0.020 A 
ENDBRANCH   9  17
ENDBRANCH   4   9
TORSDOF 4
