REMARK SMILES CCOc1ccc2[nH]c(C)nc(=Nc3ccc(Cl)c(-c4cscn4)c3)c2c1
REMARK SMILES IDX 4 1 5 2 6 3 7 4 8 5 9 6 10 7 11 8 12 9 26 10 27 11 3 13 2 14
REMARK SMILES IDX 1 15 13 16 14 17 15 18 25 19 16 20 19 21 17 22 18 23 20 24
REMARK SMILES IDX 21 25 24 26 22 27 23 28
REMARK H PARENT 8 12
ROOT
ATOM      1  C   UNL     1       3.388   0.471  -1.084  1.00  0.00     0.120 A 
ATOM      2  C   UNL     1       4.105   0.793   0.050  1.00  0.00     0.048 A 
ATOM      3  C   UNL     1       3.535   0.745   1.321  1.00  0.00     0.030 A 
ATOM      4  C   UNL     1       2.221   0.371   1.502  1.00  0.00     0.051 A 
ATOM      5  N   UNL     1       1.644   0.314   2.702  1.00  0.00    -0.343 N 
ATOM      6  C   UNL     1       0.348  -0.061   2.822  1.00  0.00     0.105 A 
ATOM      7  C   UNL     1      -0.204  -0.094   4.201  1.00  0.00     0.087 C 
ATOM      8  N   UNL     1      -0.390  -0.386   1.735  1.00  0.00    -0.215 NA
ATOM      9  C   UNL     1       0.172  -0.336   0.509  1.00  0.00     0.163 A 
ATOM     10  C   UNL     1       1.490   0.043   0.364  1.00  0.00     0.046 A 
ATOM     11  C   UNL     1       2.073   0.096  -0.902  1.00  0.00     0.060 A 
ATOM     12  H   UNL     1       2.215   0.563   3.529  1.00  0.00     0.168 HD
ENDROOT
BRANCH   1  13
ATOM     13  O   UNL     1       3.882   0.496  -2.358  1.00  0.00    -0.494 OA
BRANCH  13  14
ATOM     14  C   UNL     1       5.198   0.853  -2.716  1.00  0.00     0.226 C 
ATOM     15  C   UNL     1       6.262  -0.003  -2.115  1.00  0.00     0.049 C 
ENDBRANCH  13  14
ENDBRANCH   1  13
BRANCH   9  16
ATOM     16  N   UNL     1      -0.469  -0.630  -0.571  1.00  0.00    -0.229 NA
BRANCH  16  17
ATOM     17  C   UNL     1      -1.829  -1.039  -0.604  1.00  0.00     0.066 A 
ATOM     18  C   UNL     1      -2.147  -2.381  -0.626  1.00  0.00     0.030 A 
ATOM     19  C   UNL     1      -2.812  -0.071  -0.612  1.00  0.00     0.040 A 
ATOM     20  C   UNL     1      -3.482  -2.735  -0.657  1.00  0.00     0.023 A 
ATOM     21  C   UNL     1      -4.144  -0.407  -0.644  1.00  0.00     0.022 A 
ATOM     22  C   UNL     1      -4.448  -1.752  -0.666  1.00  0.00     0.050 A 
ATOM     23  Cl  UNL     1      -6.136  -2.260  -0.706  1.00  0.00    -0.084 Cl
BRANCH  21  24
ATOM     24  C   UNL     1      -5.186   0.642  -0.653  1.00  0.00     0.083 A 
ATOM     25  C   UNL     1      -4.868   1.972  -0.630  1.00  0.00     0.095 A 
ATOM     26  N   UNL     1      -6.484   0.410  -0.682  1.00  0.00    -0.245 NA
ATOM     27  S   UNL     1      -6.504   2.821  -0.654  1.00  0.00    -0.130 S 
ATOM     28  C   UNL     1      -7.370   1.104  -0.692  1.00  0.00     0.176 A 
ENDBRANCH  21  24
ENDBRANCH  16  17
ENDBRANCH   9  16
TORSDOF 5
