REMARK SMILES CCOC1CC2CC(OC(=O)Nc3ccncc3C)CC2C1
REMARK SMILES IDX 4 1 5 2 6 3 7 4 8 5 20 6 21 7 22 8 3 9 2 10 1 11 9 12 10 13
REMARK SMILES IDX 12 14 11 15 13 17 14 18 18 19 15 20 17 21 16 22 19 23
REMARK H PARENT 12 16
ROOT
ATOM      1  C   UNL     1      -4.072   0.349  -0.290  1.00  0.00     0.118 C 
ATOM      2  C   UNL     1      -3.359  -0.790   0.422  1.00  0.00     0.036 C 
ATOM      3  C   UNL     1      -2.098  -0.844  -0.338  1.00  0.00    -0.002 C 
ATOM      4  C   UNL     1      -0.870  -1.298   0.344  1.00  0.00     0.049 C 
ATOM      5  C   UNL     1       0.186  -0.580  -0.479  1.00  0.00     0.179 C 
ATOM      6  C   UNL     1      -0.533   0.582  -1.182  1.00  0.00     0.049 C 
ATOM      7  C   UNL     1      -1.785   0.659  -0.383  1.00  0.00    -0.002 C 
ATOM      8  C   UNL     1      -3.027   1.082  -1.101  1.00  0.00     0.036 C 
ENDROOT
BRANCH   1   9
ATOM      9  O   UNL     1      -4.827   1.118   0.518  1.00  0.00    -0.378 OA
BRANCH   9  10
ATOM     10  C   UNL     1      -6.169   1.190   0.315  1.00  0.00     0.157 C 
ATOM     11  C   UNL     1      -6.829  -0.163   0.435  1.00  0.00     0.035 C 
ENDBRANCH   9  10
ENDBRANCH   1   9
BRANCH   5  12
ATOM     12  O   UNL     1       1.241  -0.104   0.324  1.00  0.00    -0.446 OA
BRANCH  12  13
ATOM     13  C   UNL     1       2.549  -0.501   0.062  1.00  0.00     0.411 C 
ATOM     14  N   UNL     1       3.558   0.021   0.914  1.00  0.00    -0.291 N 
ATOM     15  O   UNL     1       2.792  -1.289  -0.895  1.00  0.00    -0.224 OA
ATOM     16  H   UNL     1       3.308   0.669   1.692  1.00  0.00     0.173 HD
BRANCH  14  17
ATOM     17  C   UNL     1       4.940  -0.292   0.774  1.00  0.00     0.050 A 
ATOM     18  C   UNL     1       5.470  -1.379   1.441  1.00  0.00     0.046 A 
ATOM     19  C   UNL     1       5.748   0.488  -0.027  1.00  0.00    -0.009 A 
ATOM     20  C   UNL     1       6.805  -1.657   1.288  1.00  0.00     0.113 A 
ATOM     21  C   UNL     1       7.083   0.159  -0.143  1.00  0.00     0.116 A 
ATOM     22  N   UNL     1       7.611  -0.906   0.509  1.00  0.00    -0.264 NA
ATOM     23  C   UNL     1       5.129   1.642  -0.720  1.00  0.00     0.048 C 
ENDBRANCH  14  17
ENDBRANCH  12  13
ENDBRANCH   5  12
TORSDOF 5
