REMARK SMILES COc1ccc(C(=O)C=Cc2ccc(OCCCCBr)cc2)c(OC)c1
REMARK SMILES IDX 11 1 12 2 13 3 14 4 21 5 22 6 10 7 9 8 7 9 8 10 6 11 3 12
REMARK SMILES IDX 4 13 26 14 5 15 23 16 2 17 1 18 24 19 25 20 15 21 16 22
REMARK SMILES IDX 17 23 18 24 19 25 20 26
REMARK H PARENT
ROOT
ATOM      1  C   UNL     1       1.081   1.329   0.444  1.00  0.00    -0.025 A 
ATOM      2  C   UNL     1       1.379   0.282  -0.402  1.00  0.00     0.012 A 
ATOM      3  C   UNL     1       2.672  -0.006  -0.816  1.00  0.00     0.047 A 
ATOM      4  C   UNL     1       3.729   0.768  -0.381  1.00  0.00     0.119 A 
ATOM      5  C   UNL     1       3.460   1.823   0.468  1.00  0.00     0.047 A 
ATOM      6  C   UNL     1       2.168   2.092   0.867  1.00  0.00     0.012 A 
ENDROOT
BRANCH   1   7
ATOM      7  C   UNL     1      -0.266   1.649   0.891  1.00  0.00     0.012 C 
BRANCH   7   8
ATOM      8  C   UNL     1      -1.346   0.975   0.535  1.00  0.00     0.053 C 
BRANCH   8   9
ATOM      9  C   UNL     1      -2.621   1.425   1.070  1.00  0.00     0.189 C 
ATOM     10  O   UNL     1      -2.557   2.437   1.836  1.00  0.00    -0.289 OA
BRANCH   9  11
ATOM     11  C   UNL     1      -3.906   0.854   0.824  1.00  0.00     0.064 A 
ATOM     12  C   UNL     1      -6.527  -0.150   0.445  1.00  0.00     0.122 A 
ATOM     13  C   UNL     1      -6.296   0.938   1.245  1.00  0.00     0.047 A 
ATOM     14  C   UNL     1      -5.450  -0.738  -0.166  1.00  0.00     0.093 A 
ATOM     15  C   UNL     1      -5.035   1.426   1.430  1.00  0.00     0.020 A 
ATOM     16  C   UNL     1      -4.174  -0.238   0.027  1.00  0.00     0.133 A 
BRANCH  12  17
ATOM     17  O   UNL     1      -7.784  -0.689   0.220  1.00  0.00    -0.497 OA
ATOM     18  C   UNL     1      -8.944  -0.140   0.813  1.00  0.00     0.278 C 
ENDBRANCH  12  17
BRANCH  16  19
ATOM     19  O   UNL     1      -3.142  -0.881  -0.620  1.00  0.00    -0.496 OA
ATOM     20  C   UNL     1      -3.247  -1.994  -1.457  1.00  0.00     0.278 C 
ENDBRANCH  16  19
ENDBRANCH   9  11
ENDBRANCH   8   9
ENDBRANCH   7   8
ENDBRANCH   1   7
BRANCH   4  21
ATOM     21  O   UNL     1       5.047   0.536  -0.755  1.00  0.00    -0.494 OA
BRANCH  21  22
ATOM     22  C   UNL     1       5.414  -0.522  -1.621  1.00  0.00     0.229 C 
BRANCH  22  23
ATOM     23  C   UNL     1       6.903  -0.514  -1.837  1.00  0.00     0.042 C 
BRANCH  23  24
ATOM     24  C   UNL     1       7.571  -0.690  -0.492  1.00  0.00     0.015 C 
BRANCH  24  25
ATOM     25  C   UNL     1       7.150  -2.004   0.135  1.00  0.00     0.081 C 
ATOM     26  Br  UNL     1       8.019  -2.209   1.857  1.00  0.00    -0.093 Br
ENDBRANCH  24  25
ENDBRANCH  23  24
ENDBRANCH  22  23
ENDBRANCH  21  22
ENDBRANCH   4  21
TORSDOF 11
