REMARK SMILES COc1ccc(-c2nc(-c3ccccc3OC)ns2)cc1
REMARK SMILES IDX 7 1 8 2 9 3 18 4 19 5 6 6 3 7 4 8 21 9 5 10 20 11 2 12 1 13
REMARK SMILES IDX 10 14 11 15 15 16 12 17 14 18 13 19 16 20 17 21
REMARK H PARENT
ROOT
ATOM      1  C   UNL     1      -0.530  -0.092  -1.167  1.00  0.00     0.144 A 
ATOM      2  N   UNL     1       0.609  -0.082  -0.891  1.00  0.00    -0.214 NA
ATOM      3  C   UNL     1       1.676  -0.156  -1.598  1.00  0.00     0.177 A 
ATOM      4  N   UNL     1       1.348  -0.274  -3.009  1.00  0.00    -0.170 NA
ATOM      5  S   UNL     1      -0.446  -0.253  -3.027  1.00  0.00    -0.013 S 
ENDROOT
BRANCH   1   6
ATOM      6  C   UNL     1      -1.855  -0.022  -0.553  1.00  0.00     0.012 A 
ATOM      7  C   UNL     1      -4.291   0.117   0.708  1.00  0.00     0.118 A 
ATOM      8  C   UNL     1      -4.236  -0.002  -0.659  1.00  0.00     0.047 A 
ATOM      9  C   UNL     1      -3.139   0.166   1.449  1.00  0.00     0.047 A 
ATOM     10  C   UNL     1      -3.010  -0.071  -1.288  1.00  0.00     0.015 A 
ATOM     11  C   UNL     1      -1.904   0.096   0.809  1.00  0.00     0.015 A 
BRANCH   7  12
ATOM     12  O   UNL     1      -5.499   0.189   1.374  1.00  0.00    -0.497 OA
ATOM     13  C   UNL     1      -6.746   0.150   0.741  1.00  0.00     0.278 C 
ENDBRANCH   7  12
ENDBRANCH   1   6
BRANCH   3  14
ATOM     14  C   UNL     1       3.077  -0.141  -1.213  1.00  0.00     0.062 A 
ATOM     15  C   UNL     1       4.110  -0.231  -2.118  1.00  0.00     0.016 A 
ATOM     16  C   UNL     1       3.402  -0.030   0.120  1.00  0.00     0.129 A 
ATOM     17  C   UNL     1       5.440  -0.217  -1.754  1.00  0.00     0.001 A 
ATOM     18  C   UNL     1       4.737  -0.015   0.490  1.00  0.00     0.047 A 
ATOM     19  C   UNL     1       5.768  -0.105  -0.405  1.00  0.00     0.004 A 
BRANCH  16  20
ATOM     20  O   UNL     1       2.373   0.063   1.048  1.00  0.00    -0.496 OA
ATOM     21  C   UNL     1       2.658   0.179   2.435  1.00  0.00     0.278 C 
ENDBRANCH  16  20
ENDBRANCH   3  14
TORSDOF 4
