REMARK SMILES Cc1cccc(S(=O)(=O)N2CCN(S(=O)(=O)c3ccc4c(c3)OCCO4)CC2)c1
REMARK SMILES IDX 10 1 11 2 12 3 13 4 27 5 28 6 7 7 8 8 9 9 6 10 2 11 3 12
REMARK SMILES IDX 29 13 4 14 5 15 1 16 14 17 15 18 16 19 17 20 18 21 22 22
REMARK SMILES IDX 19 23 21 24 20 25 23 26 26 27 24 28 25 29
REMARK H PARENT
ROOT
ATOM      1  N   UNL     1      -1.517  -1.047  -1.911  1.00  0.00    -0.195 NA
ATOM      2  C   UNL     1      -0.986   0.029  -1.139  1.00  0.00     0.119 C 
ATOM      3  C   UNL     1      -0.277  -0.433   0.095  1.00  0.00     0.119 C 
ATOM      4  N   UNL     1       0.217  -1.761  -0.112  1.00  0.00    -0.195 NA
ATOM      5  C   UNL     1       0.646  -1.960  -1.487  1.00  0.00     0.119 C 
ATOM      6  C   UNL     1      -0.524  -1.933  -2.444  1.00  0.00     0.119 C 
ENDROOT
BRANCH   1   7
ATOM      7  S   UNL     1      -2.827  -1.802  -1.129  1.00  0.00     0.243 S 
ATOM      8  O   UNL     1      -3.321  -3.006  -1.835  1.00  0.00    -0.207 OA
ATOM      9  O   UNL     1      -2.389  -2.248   0.256  1.00  0.00    -0.207 OA
BRANCH   7  10
ATOM     10  C   UNL     1      -4.106  -0.604  -0.925  1.00  0.00     0.082 A 
ATOM     11  C   UNL     1      -5.162   1.091   0.332  1.00  0.00    -0.050 A 
ATOM     12  C   UNL     1      -6.103   1.224  -0.673  1.00  0.00     0.003 A 
ATOM     13  C   UNL     1      -4.137   0.171   0.231  1.00  0.00     0.025 A 
ATOM     14  C   UNL     1      -6.064   0.452  -1.815  1.00  0.00     0.002 A 
ATOM     15  C   UNL     1      -5.043  -0.472  -1.928  1.00  0.00     0.022 A 
ATOM     16  C   UNL     1      -5.281   1.973   1.540  1.00  0.00     0.044 C 
ENDBRANCH   7  10
ENDBRANCH   1   7
BRANCH   4  17
ATOM     17  S   UNL     1       1.508  -2.124   0.966  1.00  0.00     0.243 S 
ATOM     18  O   UNL     1       1.016  -1.914   2.384  1.00  0.00    -0.207 OA
ATOM     19  O   UNL     1       1.995  -3.522   0.770  1.00  0.00    -0.207 OA
BRANCH  17  20
ATOM     20  C   UNL     1       2.859  -1.032   0.695  1.00  0.00     0.086 A 
ATOM     21  C   UNL     1       3.815  -1.431  -0.233  1.00  0.00     0.026 A 
ATOM     22  C   UNL     1       2.984   0.168   1.361  1.00  0.00     0.072 A 
ATOM     23  C   UNL     1       4.919  -0.656  -0.528  1.00  0.00     0.052 A 
ATOM     24  C   UNL     1       4.090   0.939   1.061  1.00  0.00     0.162 A 
ATOM     25  C   UNL     1       5.046   0.543   0.135  1.00  0.00     0.161 A 
ATOM     26  O   UNL     1       4.290   2.160   1.686  1.00  0.00    -0.486 OA
ATOM     27  O   UNL     1       6.153   1.327  -0.157  1.00  0.00    -0.486 OA
ATOM     28  C   UNL     1       5.172   3.108   1.100  1.00  0.00     0.271 C 
ATOM     29  C   UNL     1       6.464   2.368   0.758  1.00  0.00     0.271 C 
ENDBRANCH  17  20
ENDBRANCH   4  17
TORSDOF 4
