REMARK SMILES CC(OCc1ccccc1)n1ccnc1
REMARK SMILES IDX 3 1 2 2 1 3 11 4 12 5 15 6 13 7 14 8 4 9 5 10 6 11 10 12
REMARK SMILES IDX 7 13 9 14 8 15
REMARK H PARENT
ROOT
ATOM      1  O   UNL     1      -0.323  -0.483  -0.046  1.00  0.00    -0.354 OA
ENDROOT
BRANCH   1   2
ATOM      2  C   UNL     1      -1.609  -0.913  -0.256  1.00  0.00     0.217 C 
ATOM      3  C   UNL     1      -2.063  -1.715   0.961  1.00  0.00     0.064 C 
BRANCH   2   4
ATOM      4  N   UNL     1      -2.457   0.262  -0.354  1.00  0.00    -0.311 N 
ATOM      5  C   UNL     1      -3.376   0.687   0.559  1.00  0.00     0.110 A 
ATOM      6  C   UNL     1      -2.495   1.153  -1.365  1.00  0.00     0.201 A 
ATOM      7  C   UNL     1      -3.981   1.843   0.107  1.00  0.00     0.131 A 
ATOM      8  N   UNL     1      -3.416   2.116  -1.095  1.00  0.00    -0.245 NA
ENDBRANCH   2   4
ENDBRANCH   1   2
BRANCH   1   9
ATOM      9  C   UNL     1       0.612  -0.899  -0.960  1.00  0.00     0.198 C 
BRANCH   9  10
ATOM     10  C   UNL     1       1.913  -0.296  -0.502  1.00  0.00    -0.022 A 
ATOM     11  C   UNL     1       2.721  -1.001   0.376  1.00  0.00     0.006 A 
ATOM     12  C   UNL     1       2.316   0.960  -0.947  1.00  0.00     0.006 A 
ATOM     13  C   UNL     1       3.931  -0.451   0.808  1.00  0.00     0.000 A 
ATOM     14  C   UNL     1       3.506   1.527  -0.536  1.00  0.00     0.000 A 
ATOM     15  C   UNL     1       4.289   0.804   0.337  1.00  0.00     0.000 A 
ENDBRANCH   9  10
ENDBRANCH   1   9
TORSDOF 4
