REMARK SMILES COc1ccc(C=NNC(=S)NC2CCCCC2)cc1O
REMARK SMILES IDX 7 1 6 2 3 3 4 4 20 5 5 6 19 7 2 8 1 9 21 10 8 12 9 13 10 14
REMARK SMILES IDX 12 15 11 17 13 19 14 20 18 21 15 22 17 23 16 24
REMARK H PARENT 21 11 9 16 12 18
ROOT
ATOM      1  C   UNL     1       1.977  -0.545   0.915  1.00  0.00     0.141 C 
ENDROOT
BRANCH   1   2
ATOM      2  C   UNL     1       3.329  -0.350   0.404  1.00  0.00    -0.002 A 
ATOM      3  C   UNL     1       5.910   0.017  -0.586  1.00  0.00     0.160 A 
ATOM      4  C   UNL     1       5.611   0.391   0.699  1.00  0.00     0.051 A 
ATOM      5  C   UNL     1       4.927  -0.540  -1.385  1.00  0.00     0.158 A 
ATOM      6  C   UNL     1       4.327   0.207   1.190  1.00  0.00     0.014 A 
ATOM      7  C   UNL     1       3.647  -0.720  -0.886  1.00  0.00     0.060 A 
BRANCH   3   8
ATOM      8  O   UNL     1       7.191   0.196  -1.088  1.00  0.00    -0.493 OA
ATOM      9  C   UNL     1       8.161   0.775  -0.219  1.00  0.00     0.278 C 
ENDBRANCH   3   8
BRANCH   5  10
ATOM     10  O   UNL     1       5.262  -0.910  -2.688  1.00  0.00    -0.504 OA
ATOM     11  H   UNL     1       4.999  -1.862  -2.944  1.00  0.00     0.293 HD
ENDBRANCH   5  10
ENDBRANCH   1   2
BRANCH   1  12
ATOM     12  N   UNL     1       1.029  -1.061   0.206  1.00  0.00    -0.181 NA
BRANCH  12  13
ATOM     13  N   UNL     1      -0.255  -1.241   0.707  1.00  0.00    -0.254 N 
ATOM     14  C   UNL     1      -1.320  -0.301   0.457  1.00  0.00     0.187 C 
ATOM     15  N   UNL     1      -2.623  -0.518   0.985  1.00  0.00    -0.359 N 
ATOM     16  H   UNL     1      -0.448  -2.094   1.287  1.00  0.00     0.193 HD
ATOM     17  S   UNL     1      -0.960   1.007  -0.452  1.00  0.00    -0.039 S 
ATOM     18  H   UNL     1      -2.790  -1.365   1.553  1.00  0.00     0.163 HD
BRANCH  15  19
ATOM     19  C   UNL     1      -3.706   0.424   0.740  1.00  0.00     0.081 C 
ATOM     20  C   UNL     1      -3.970   0.552  -0.729  1.00  0.00     0.025 C 
ATOM     21  C   UNL     1      -4.922   0.014   1.516  1.00  0.00     0.025 C 
ATOM     22  C   UNL     1      -5.229  -0.228  -1.082  1.00  0.00     0.002 C 
ATOM     23  C   UNL     1      -6.084   0.835   0.942  1.00  0.00     0.002 C 
ATOM     24  C   UNL     1      -6.456   0.319  -0.430  1.00  0.00     0.000 C 
ENDBRANCH  15  19
ENDBRANCH  12  13
ENDBRANCH   1  12
TORSDOF 6
