REMARK SMILES CCCCNC(=O)CSc1nnc(COc2ccc(Cl)cc2Cl)n1C
REMARK SMILES IDX 8 1 6 2 5 3 7 5 4 6 3 7 2 8 1 9 9 10 10 11 11 12 24 13 12 14
REMARK SMILES IDX 13 15 25 16 14 17 15 18 16 19 17 20 22 21 18 22 21 23 19 24
REMARK SMILES IDX 23 25 20 26
REMARK H PARENT 5 4
ROOT
ATOM      1  C   UNL     1       2.330   1.913   0.167  1.00  0.00     0.178 C 
ENDROOT
BRANCH   1   2
ATOM      2  C   UNL     1       3.169   0.859  -0.443  1.00  0.00     0.230 C 
ATOM      3  N   UNL     1       3.348  -0.440   0.078  1.00  0.00    -0.355 N 
ATOM      4  H   UNL     1       2.835  -0.642   0.990  1.00  0.00     0.163 HD
ATOM      5  O   UNL     1       3.767   1.187  -1.525  1.00  0.00    -0.274 OA
BRANCH   3   6
ATOM      6  C   UNL     1       4.161  -1.466  -0.516  1.00  0.00     0.116 C 
BRANCH   6   7
ATOM      7  C   UNL     1       5.607  -1.067  -0.652  1.00  0.00     0.021 C 
BRANCH   7   8
ATOM      8  C   UNL     1       6.267  -0.732   0.664  1.00  0.00    -0.002 C 
ATOM      9  C   UNL     1       7.704  -0.352   0.374  1.00  0.00     0.004 C 
ENDBRANCH   7   8
ENDBRANCH   6   7
ENDBRANCH   3   6
ENDBRANCH   1   2
BRANCH   1  10
ATOM     10  S   UNL     1       1.374   1.181   1.516  1.00  0.00    -0.076 SA
BRANCH  10  11
ATOM     11  C   UNL     1       0.172   0.096   0.769  1.00  0.00     0.191 A 
ATOM     12  N   UNL     1       0.198  -1.195   0.465  1.00  0.00    -0.123 NA
ATOM     13  N   UNL     1      -1.051   0.557   0.373  1.00  0.00    -0.306 N 
ATOM     14  N   UNL     1      -0.969  -1.542  -0.106  1.00  0.00    -0.131 NA
ATOM     15  C   UNL     1      -1.762  -0.459  -0.172  1.00  0.00     0.171 A 
ATOM     16  C   UNL     1      -1.542   1.938   0.508  1.00  0.00     0.154 C 
BRANCH  15  17
ATOM     17  C   UNL     1      -3.126  -0.287  -0.695  1.00  0.00     0.307 C 
BRANCH  17  18
ATOM     18  O   UNL     1      -4.041  -0.464   0.364  1.00  0.00    -0.484 OA
BRANCH  18  19
ATOM     19  C   UNL     1      -5.420  -0.352   0.213  1.00  0.00     0.138 A 
ATOM     20  C   UNL     1      -5.877  -0.049  -1.068  1.00  0.00     0.049 A 
ATOM     21  C   UNL     1      -6.300  -0.528   1.271  1.00  0.00     0.084 A 
ATOM     22  C   UNL     1      -7.244   0.088  -1.328  1.00  0.00     0.024 A 
ATOM     23  C   UNL     1      -7.647  -0.392   1.009  1.00  0.00     0.045 A 
ATOM     24  C   UNL     1      -8.100  -0.089  -0.277  1.00  0.00     0.042 A 
ATOM     25  Cl  UNL     1      -5.703  -0.900   2.857  1.00  0.00    -0.080 Cl
ATOM     26  Cl  UNL     1      -9.830   0.084  -0.597  1.00  0.00    -0.084 Cl
ENDBRANCH  18  19
ENDBRANCH  17  18
ENDBRANCH  15  17
ENDBRANCH  10  11
ENDBRANCH   1  10
TORSDOF 9
