REMARK SMILES Oc1cc(Cc2ccc(Cl)cc2)c(O)n1-c1nc[nH]n1
REMARK SMILES IDX 2 1 3 2 4 3 13 4 15 5 1 6 16 8 17 9 20 10 18 11 19 12 5 14
REMARK SMILES IDX 6 15 7 16 12 17 8 18 11 19 9 20 10 21 14 22
REMARK H PARENT 1 7 19 13 14 23
ROOT
ATOM      1  C   UNL     1      -1.621  -0.555  -1.782  1.00  0.00     0.201 A 
ATOM      2  C   UNL     1      -0.471   0.123  -2.123  1.00  0.00     0.076 A 
ATOM      3  C   UNL     1      -0.029   0.835  -1.026  1.00  0.00     0.022 A 
ATOM      4  C   UNL     1      -0.942   0.566  -0.030  1.00  0.00     0.204 A 
ATOM      5  N   UNL     1      -1.889  -0.260  -0.476  1.00  0.00    -0.216 N 
ENDROOT
BRANCH   1   6
ATOM      6  O   UNL     1      -2.371  -1.387  -2.620  1.00  0.00    -0.494 OA
ATOM      7  H   UNL     1      -3.131  -1.954  -2.262  1.00  0.00     0.295 HD
ENDBRANCH   1   6
BRANCH   5   8
ATOM      8  C   UNL     1      -3.008  -0.758   0.280  1.00  0.00     0.258 A 
ATOM      9  N   UNL     1      -4.151  -1.286  -0.208  1.00  0.00    -0.200 NA
ATOM     10  N   UNL     1      -3.080  -0.769   1.637  1.00  0.00    -0.134 NA
ATOM     11  C   UNL     1      -4.934  -1.625   0.840  1.00  0.00     0.218 A 
ATOM     12  N   UNL     1      -4.256  -1.298   1.955  1.00  0.00    -0.264 N 
ATOM     13  H   UNL     1      -4.560  -1.420   2.948  1.00  0.00     0.191 HD
ENDBRANCH   5   8
BRANCH   3  14
ATOM     14  C   UNL     1       1.176   1.716  -0.917  1.00  0.00     0.076 C 
BRANCH  14  15
ATOM     15  C   UNL     1       2.251   1.037  -0.182  1.00  0.00    -0.043 A 
ATOM     16  C   UNL     1       2.433   1.088   1.180  1.00  0.00     0.005 A 
ATOM     17  C   UNL     1       3.155   0.285  -0.919  1.00  0.00     0.005 A 
ATOM     18  C   UNL     1       3.457   0.434   1.839  1.00  0.00     0.021 A 
ATOM     19  C   UNL     1       4.200  -0.391  -0.312  1.00  0.00     0.021 A 
ATOM     20  C   UNL     1       4.344  -0.312   1.059  1.00  0.00     0.041 A 
ATOM     21  Cl  UNL     1       5.677  -1.179   1.801  1.00  0.00    -0.084 Cl
ENDBRANCH  14  15
ENDBRANCH   3  14
BRANCH   4  22
ATOM     22  O   UNL     1      -0.917   1.062   1.270  1.00  0.00    -0.494 OA
ATOM     23  H   UNL     1      -1.104   2.038   1.468  1.00  0.00     0.295 HD
ENDBRANCH   4  22
TORSDOF 5
