REMARK SMILES O=C(c1ccccc1)c1cccc(C(=O)N2CCSCC2)c1
REMARK SMILES IDX 9 1 10 2 11 3 12 4 13 5 22 6 2 7 1 8 3 9 4 10 8 11 5 12 7 13
REMARK SMILES IDX 6 14 14 15 16 16 17 17 21 18 18 19 20 20 19 21 15 22
REMARK H PARENT
ROOT
ATOM      1  C   UNL     1       1.432   0.019  -0.003  1.00  0.00     0.023 A 
ATOM      2  C   UNL     1       1.415   1.008  -0.965  1.00  0.00     0.012 A 
ATOM      3  C   UNL     1       0.276   1.290  -1.715  1.00  0.00     0.002 A 
ATOM      4  C   UNL     1      -0.899   0.585  -1.524  1.00  0.00     0.014 A 
ATOM      5  C   UNL     1      -0.893  -0.407  -0.562  1.00  0.00     0.040 A 
ATOM      6  C   UNL     1       0.233  -0.683   0.173  1.00  0.00     0.026 A 
ENDROOT
BRANCH   1   7
ATOM      7  C   UNL     1       2.594  -0.333   0.789  1.00  0.00     0.193 C 
ATOM      8  O   UNL     1       2.354  -0.882   1.922  1.00  0.00    -0.289 OA
BRANCH   7   9
ATOM      9  C   UNL     1       3.966  -0.136   0.444  1.00  0.00     0.022 A 
ATOM     10  C   UNL     1       4.429  -0.022  -0.854  1.00  0.00     0.012 A 
ATOM     11  C   UNL     1       4.920  -0.033   1.438  1.00  0.00     0.012 A 
ATOM     12  C   UNL     1       5.770   0.182  -1.104  1.00  0.00     0.001 A 
ATOM     13  C   UNL     1       6.260   0.170   1.194  1.00  0.00     0.001 A 
ATOM     14  C   UNL     1       6.716   0.285  -0.110  1.00  0.00     0.000 A 
ENDBRANCH   7   9
ENDBRANCH   1   7
BRANCH   5  15
ATOM     15  C   UNL     1      -2.077  -1.186  -0.314  1.00  0.00     0.253 C 
ATOM     16  N   UNL     1      -3.360  -0.650  -0.011  1.00  0.00    -0.337 N 
ATOM     17  C   UNL     1      -3.604   0.793   0.079  1.00  0.00     0.130 C 
ATOM     18  C   UNL     1      -4.484  -1.522   0.226  1.00  0.00     0.130 C 
ATOM     19  C   UNL     1      -4.674   1.223  -0.919  1.00  0.00     0.091 C 
ATOM     20  C   UNL     1      -5.632  -0.809   0.912  1.00  0.00     0.091 C 
ATOM     21  S   UNL     1      -6.210   0.466  -0.272  1.00  0.00    -0.158 SA
ATOM     22  O   UNL     1      -1.944  -2.458  -0.375  1.00  0.00    -0.269 OA
ENDBRANCH   5  15
TORSDOF 3
