REMARK SMILES CC1C(=O)Nc2ccc(S(=O)(=O)NCc3ccccc3)cc2NC1=O
REMARK SMILES IDX 6 1 7 2 8 3 9 4 21 5 22 6 23 7 24 8 25 9 2 11 1 12 5 14 3 15
REMARK SMILES IDX 4 17 10 19 11 20 12 21 13 22 14 24 15 25 16 26 20 27 17 28
REMARK SMILES IDX 19 29 18 30
REMARK H PARENT 23 10 5 16 13 23
REMARK Flexibility Score:   79.900
ROOT
ATOM      1  C   UNL     1      -2.269   1.251   0.340  1.00  0.00     0.065 A 
ATOM      2  C   UNL     1      -1.599   2.385  -0.114  1.00  0.00     0.030 A 
ATOM      3  C   UNL     1      -0.564   2.235  -1.015  1.00  0.00     0.024 A 
ATOM      4  C   UNL     1      -0.167   0.999  -1.483  1.00  0.00     0.084 A 
ATOM      5  C   UNL     1      -0.825  -0.133  -1.039  1.00  0.00     0.050 A 
ATOM      6  C   UNL     1      -1.863   0.009  -0.137  1.00  0.00     0.066 A 
ENDROOT
BRANCH   6   7
ATOM      7  N   UNL     1      -2.431  -1.258   0.217  1.00  0.00    -0.324 N 
ATOM      8  C   UNL     1      -3.754  -1.517   0.730  1.00  0.00     0.236 C 
ATOM      9  O   UNL     1      -3.970  -2.732   1.044  1.00  0.00    -0.274 OA
ATOM     10  H   UNL     1      -1.794  -2.063   0.076  1.00  0.00     0.170 HD
BRANCH   8  11
ATOM     11  C   UNL     1      -4.851  -0.546   0.922  1.00  0.00     0.165 CG0
ATOM     12  C   UNL     1      -5.927  -1.208   1.754  1.00  0.00     0.028 C 
ATOM     13  G   UNL     1      -4.418   0.692   1.599  1.00  0.00     0.000 G0
ENDBRANCH   8  11
ENDBRANCH   6   7
BRANCH   1  14
ATOM     14  N   UNL     1      -3.312   1.552   1.264  1.00  0.00    -0.324 N 
ATOM     15  C   UNL     1      -4.418   0.692   1.599  1.00  0.00     0.236 CG0
ATOM     16  H   UNL     1      -3.244   2.471   1.716  1.00  0.00     0.170 HD
ATOM     17  O   UNL     1      -5.086   1.081   2.616  1.00  0.00    -0.274 OA
ATOM     18  G   UNL     1      -4.851  -0.546   0.922  1.00  0.00     0.000 G0
ENDBRANCH   1  14
BRANCH   4  19
ATOM     19  S   UNL     1       1.157   0.917  -2.624  1.00  0.00     0.240 S 
ATOM     20  O   UNL     1       1.243   2.155  -3.464  1.00  0.00    -0.207 OA
ATOM     21  O   UNL     1       0.998  -0.238  -3.566  1.00  0.00    -0.207 OA
BRANCH  19  22
ATOM     22  N   UNL     1       2.604   0.762  -1.689  1.00  0.00    -0.207 NA
ATOM     23  H   UNL     1       2.843   1.622  -1.189  1.00  0.00     0.141 HD
BRANCH  22  24
ATOM     24  C   UNL     1       2.578  -0.442  -0.913  1.00  0.00     0.134 C 
BRANCH  24  25
ATOM     25  C   UNL     1       3.826  -0.562  -0.115  1.00  0.00    -0.033 A 
ATOM     26  C   UNL     1       4.942  -1.196  -0.599  1.00  0.00     0.005 A 
ATOM     27  C   UNL     1       3.876  -0.017   1.171  1.00  0.00     0.005 A 
ATOM     28  C   UNL     1       6.059  -1.263   0.207  1.00  0.00     0.000 A 
ATOM     29  C   UNL     1       4.997  -0.097   1.952  1.00  0.00     0.000 A 
ATOM     30  C   UNL     1       6.113  -0.728   1.474  1.00  0.00     0.000 A 
ENDBRANCH  24  25
ENDBRANCH  22  24
ENDBRANCH  19  22
ENDBRANCH   4  19
TORSDOF 4
