REMARK SMILES CC(N)C(=O)NC(CCC(=O)O)C(=O)O
REMARK SMILES IDX 7 1 6 2 4 3 5 4 2 6 1 7 3 8 8 11 9 12 10 13 11 14 12 15
REMARK SMILES IDX 13 17 14 18 15 19
REMARK H PARENT 6 5 3 9 3 10 12 16 15 20
ROOT
ATOM      1  C   UNL     1      -0.753  -0.293   0.268  1.00  0.00     0.192 C 
ENDROOT
BRANCH   1   2
ATOM      2  N   UNL     1       0.707  -0.397   0.379  1.00  0.00    -0.341 N 
ATOM      3  C   UNL     1       1.556   0.730   0.387  1.00  0.00     0.237 C 
ATOM      4  O   UNL     1       0.996   1.866   0.291  1.00  0.00    -0.273 OA
ATOM      5  H   UNL     1       1.117  -1.347   0.455  1.00  0.00     0.164 HD
BRANCH   3   6
ATOM      6  C   UNL     1       3.006   0.688   0.495  1.00  0.00     0.138 C 
ATOM      7  C   UNL     1       3.609   1.447  -0.666  1.00  0.00     0.035 C 
BRANCH   6   8
ATOM      8  N   UNL     1       3.563  -0.634   0.603  1.00  0.00    -0.320 NA
ATOM      9  H   UNL     1       4.546  -0.656   0.888  1.00  0.00     0.119 HD
ATOM     10  H   UNL     1       3.021  -1.285   1.170  1.00  0.00     0.119 HD
ENDBRANCH   6   8
ENDBRANCH   3   6
ENDBRANCH   1   2
BRANCH   1  11
ATOM     11  C   UNL     1      -1.276  -0.974  -0.930  1.00  0.00     0.048 C 
BRANCH  11  12
ATOM     12  C   UNL     1      -2.767  -0.862  -1.034  1.00  0.00     0.125 C 
BRANCH  12  13
ATOM     13  C   UNL     1      -3.257   0.527  -1.139  1.00  0.00     0.303 C 
ATOM     14  O   UNL     1      -2.544   1.552  -1.191  1.00  0.00    -0.252 OA
BRANCH  13  15
ATOM     15  O   UNL     1      -4.652   0.691  -1.184  1.00  0.00    -0.481 OA
ATOM     16  H   UNL     1      -4.995   1.625  -1.002  1.00  0.00     0.296 HD
ENDBRANCH  13  15
ENDBRANCH  12  13
ENDBRANCH  11  12
ENDBRANCH   1  11
BRANCH   1  17
ATOM     17  C   UNL     1      -1.291  -0.726   1.562  1.00  0.00     0.326 C 
ATOM     18  O   UNL     1      -0.432  -1.107   2.434  1.00  0.00    -0.250 OA
BRANCH  17  19
ATOM     19  O   UNL     1      -2.599  -0.768   1.940  1.00  0.00    -0.480 OA
ATOM     20  H   UNL     1      -2.921  -1.584   2.479  1.00  0.00     0.296 HD
ENDBRANCH  17  19
ENDBRANCH   1  17
TORSDOF 9
