REMARK SMILES COc1ccc(CNC(=O)C(NC(=O)C(=O)C(COCc2ccccc2)NC(=O)C(Cc2ccccc2)NC(=O)CC(C)C)C(C)C)cc1OC
REMARK SMILES IDX 15 1 16 2 13 3 12 4 14 6 11 7 9 8 8 9 10 11 7 12 6 13 3 14
REMARK SMILES IDX 4 15 49 16 5 17 48 18 2 19 1 20 50 21 51 22 45 23 46 24
REMARK SMILES IDX 47 25 17 26 18 27 19 28 20 29 21 30 22 31 26 32 23 33 25 34
REMARK SMILES IDX 24 35 27 36 28 37 29 39 30 40 31 41 32 42 33 43 37 44 34 45
REMARK SMILES IDX 36 46 35 47 38 48 39 49 40 51 41 52 42 53 43 54 44 55
REMARK H PARENT 12 5 8 10 27 38 38 50
ROOT
ATOM      1  C   UNL     1      -0.624   1.143   0.283  1.00  0.00     0.244 C 
ATOM      2  O   UNL     1      -0.683   1.060   1.533  1.00  0.00    -0.286 OA
ENDROOT
BRANCH   1   3
ATOM      3  C   UNL     1       0.660   1.264  -0.442  1.00  0.00     0.290 C 
ATOM      4  N   UNL     1       1.910   1.247   0.258  1.00  0.00    -0.337 N 
ATOM      5  H   UNL     1       1.944   1.145   1.296  1.00  0.00     0.164 HD
ATOM      6  O   UNL     1       0.717   1.384  -1.683  1.00  0.00    -0.266 OA
BRANCH   4   7
ATOM      7  C   UNL     1       3.101   1.383  -0.572  1.00  0.00     0.174 C 
BRANCH   7   8
ATOM      8  C   UNL     1       3.666  -0.015  -0.627  1.00  0.00     0.243 C 
ATOM      9  N   UNL     1       4.616  -0.408  -1.606  1.00  0.00    -0.350 N 
ATOM     10  H   UNL     1       4.912   0.285  -2.330  1.00  0.00     0.163 HD
ATOM     11  O   UNL     1       3.225  -0.798   0.258  1.00  0.00    -0.273 OA
BRANCH   9  12
ATOM     12  C   UNL     1       5.198  -1.723  -1.700  1.00  0.00     0.151 C 
BRANCH  12  13
ATOM     13  C   UNL     1       6.283  -1.824  -0.688  1.00  0.00    -0.025 A 
ATOM     14  C   UNL     1       8.491  -1.923   0.992  1.00  0.00     0.160 A 
ATOM     15  C   UNL     1       8.633  -1.457  -0.283  1.00  0.00     0.051 A 
ATOM     16  C   UNL     1       7.238  -2.340   1.429  1.00  0.00     0.161 A 
ATOM     17  C   UNL     1       7.547  -1.405  -1.120  1.00  0.00     0.009 A 
ATOM     18  C   UNL     1       6.128  -2.289   0.579  1.00  0.00     0.056 A 
BRANCH  14  19
ATOM     19  O   UNL     1       9.551  -1.991   1.857  1.00  0.00    -0.493 OA
ATOM     20  C   UNL     1      10.869  -1.638   1.614  1.00  0.00     0.278 C 
ENDBRANCH  14  19
BRANCH  16  21
ATOM     21  O   UNL     1       7.151  -2.799   2.720  1.00  0.00    -0.493 OA
ATOM     22  C   UNL     1       5.941  -3.260   3.304  1.00  0.00     0.278 C 
ENDBRANCH  16  21
ENDBRANCH  12  13
ENDBRANCH   9  12
ENDBRANCH   7   8
BRANCH   7  23
ATOM     23  C   UNL     1       4.099   2.293   0.038  1.00  0.00     0.015 C 
ATOM     24  C   UNL     1       5.366   2.321  -0.769  1.00  0.00     0.010 C 
ATOM     25  C   UNL     1       3.600   3.740   0.079  1.00  0.00     0.010 C 
ENDBRANCH   7  23
ENDBRANCH   4   7
ENDBRANCH   1   3
BRANCH   1  26
ATOM     26  C   UNL     1      -1.850   1.123  -0.588  1.00  0.00     0.185 C 
BRANCH  26  27
ATOM     27  C   UNL     1      -1.966   2.486  -1.227  1.00  0.00     0.194 C 
BRANCH  27  28
ATOM     28  O   UNL     1      -2.055   3.385  -0.168  1.00  0.00    -0.374 OA
BRANCH  28  29
ATOM     29  C   UNL     1      -2.203   4.698  -0.535  1.00  0.00     0.195 C 
BRANCH  29  30
ATOM     30  C   UNL     1      -1.035   5.109  -1.345  1.00  0.00    -0.022 A 
ATOM     31  C   UNL     1       0.050   5.632  -0.625  1.00  0.00     0.006 A 
ATOM     32  C   UNL     1      -0.956   5.019  -2.706  1.00  0.00     0.006 A 
ATOM     33  C   UNL     1       1.173   6.042  -1.315  1.00  0.00     0.000 A 
ATOM     34  C   UNL     1       0.176   5.435  -3.375  1.00  0.00     0.000 A 
ATOM     35  C   UNL     1       1.256   5.954  -2.676  1.00  0.00     0.000 A 
ENDBRANCH  29  30
ENDBRANCH  28  29
ENDBRANCH  27  28
ENDBRANCH  26  27
BRANCH  26  36
ATOM     36  N   UNL     1      -3.057   0.953   0.204  1.00  0.00    -0.342 N 
ATOM     37  C   UNL     1      -3.693  -0.313   0.180  1.00  0.00     0.243 C 
ATOM     38  H   UNL     1      -3.460   1.726   0.775  1.00  0.00     0.164 HD
ATOM     39  O   UNL     1      -3.161  -1.215  -0.510  1.00  0.00    -0.273 OA
BRANCH  37  40
ATOM     40  C   UNL     1      -4.931  -0.623   0.914  1.00  0.00     0.175 C 
BRANCH  40  41
ATOM     41  C   UNL     1      -6.114   0.141   0.253  1.00  0.00     0.070 C 
BRANCH  41  42
ATOM     42  C   UNL     1      -6.262  -0.285  -1.148  1.00  0.00    -0.045 A 
ATOM     43  C   UNL     1      -5.656   0.313  -2.224  1.00  0.00     0.004 A 
ATOM     44  C   UNL     1      -7.088  -1.392  -1.373  1.00  0.00     0.004 A 
ATOM     45  C   UNL     1      -5.803  -0.103  -3.523  1.00  0.00     0.000 A 
ATOM     46  C   UNL     1      -7.241  -1.820  -2.687  1.00  0.00     0.000 A 
ATOM     47  C   UNL     1      -6.619  -1.199  -3.749  1.00  0.00     0.000 A 
ENDBRANCH  41  42
ENDBRANCH  40  41
BRANCH  40  48
ATOM     48  N   UNL     1      -5.214  -2.052   0.817  1.00  0.00    -0.344 N 
ATOM     49  C   UNL     1      -5.800  -2.712   1.946  1.00  0.00     0.220 C 
ATOM     50  H   UNL     1      -4.984  -2.565  -0.073  1.00  0.00     0.164 HD
ATOM     51  O   UNL     1      -6.080  -2.068   3.009  1.00  0.00    -0.275 OA
BRANCH  49  52
ATOM     52  C   UNL     1      -6.058  -4.168   1.808  1.00  0.00     0.103 C 
BRANCH  52  53
ATOM     53  C   UNL     1      -6.871  -4.665   2.974  1.00  0.00    -0.008 C 
ATOM     54  C   UNL     1      -7.101  -6.158   2.799  1.00  0.00     0.008 C 
ATOM     55  C   UNL     1      -6.331  -4.301   4.317  1.00  0.00     0.008 C 
ENDBRANCH  52  53
ENDBRANCH  49  52
ENDBRANCH  40  48
ENDBRANCH  37  40
ENDBRANCH  26  36
ENDBRANCH   1  26
TORSDOF 20
