REMARK SMILES C=C1CC2(C)CC(CN3CCOCC3)OC1(C)O2
REMARK SMILES IDX 1 1 2 2 3 3 4 4 5 5 6 6 7 7 15 8 16 9 17 10 18 11 8 12 9 13
REMARK SMILES IDX 10 14 14 15 11 16 13 17 12 18
REMARK H PARENT
ROOT
ATOM      1  C   UNL     1      -4.597   0.415   0.702  1.00  0.00     0.013 C 
ATOM      2  C   UNL     1      -3.366   0.038   0.372  1.00  0.00    -0.016 C 
ATOM      3  C   UNL     1      -2.825  -1.373   0.464  1.00  0.00     0.071 C 
ATOM      4  C   UNL     1      -1.521  -1.176  -0.293  1.00  0.00     0.076 C 
ATOM      5  C   UNL     1      -1.187  -2.381  -1.146  1.00  0.00     0.043 C 
ATOM      6  C   UNL     1      -0.436  -0.918   0.709  1.00  0.00     0.069 C 
ATOM      7  C   UNL     1      -0.218   0.568   0.878  1.00  0.00     0.139 C 
ATOM      8  O   UNL     1      -1.398   1.289   0.815  1.00  0.00    -0.342 OA
ATOM      9  C   UNL     1      -2.262   0.888  -0.160  1.00  0.00     0.188 C 
ATOM     10  C   UNL     1      -2.839   2.085  -0.895  1.00  0.00     0.081 C 
ATOM     11  O   UNL     1      -1.679  -0.035  -1.054  1.00  0.00    -0.340 OA
ENDROOT
BRANCH   7  12
ATOM     12  C   UNL     1       0.814   0.972  -0.134  1.00  0.00     0.117 C 
BRANCH  12  13
ATOM     13  N   UNL     1       2.007   0.182   0.001  1.00  0.00    -0.296 NA
ATOM     14  C   UNL     1       2.733   0.457   1.217  1.00  0.00     0.113 C 
ATOM     15  C   UNL     1       2.896   0.216  -1.115  1.00  0.00     0.113 C 
ATOM     16  C   UNL     1       4.208   0.694   0.905  1.00  0.00     0.175 C 
ATOM     17  C   UNL     1       4.006  -0.791  -0.866  1.00  0.00     0.175 C 
ATOM     18  O   UNL     1       4.754  -0.364   0.203  1.00  0.00    -0.379 OA
ENDBRANCH  12  13
ENDBRANCH   7  12
TORSDOF 2
