REMARK SMILES O=C(NC1CCN(Cc2ccccc2)CC1)c1ccc(F)cc1F
REMARK SMILES IDX 4 1 5 2 6 3 7 4 15 5 16 6 3 7 2 8 1 9 17 11 18 12 23 13
REMARK SMILES IDX 19 14 22 15 20 16 24 17 21 18 8 19 9 20 10 21 14 22 11 23
REMARK SMILES IDX 13 24 12 25
REMARK H PARENT 3 10
ROOT
ATOM      1  C   UNL     1      -0.660   0.622   0.076  1.00  0.00     0.084 C 
ATOM      2  C   UNL     1      -0.269   1.961   0.618  1.00  0.00     0.040 C 
ATOM      3  C   UNL     1       1.030   2.360  -0.057  1.00  0.00     0.087 C 
ATOM      4  N   UNL     1       2.092   1.417   0.256  1.00  0.00    -0.299 NA
ATOM      5  C   UNL     1       1.631   0.312   1.030  1.00  0.00     0.087 C 
ATOM      6  C   UNL     1       0.415  -0.366   0.434  1.00  0.00     0.040 C 
ENDROOT
BRANCH   1   7
ATOM      7  N   UNL     1      -1.972   0.195   0.503  1.00  0.00    -0.349 N 
ATOM      8  C   UNL     1      -3.018  -0.030  -0.426  1.00  0.00     0.254 C 
ATOM      9  O   UNL     1      -2.725   0.167  -1.642  1.00  0.00    -0.269 OA
ATOM     10  H   UNL     1      -2.118   0.060   1.518  1.00  0.00     0.164 HD
BRANCH   8  11
ATOM     11  C   UNL     1      -4.357  -0.456  -0.097  1.00  0.00     0.075 A 
ATOM     12  C   UNL     1      -5.266  -0.630  -1.144  1.00  0.00     0.020 A 
ATOM     13  C   UNL     1      -4.838  -0.713   1.160  1.00  0.00     0.138 A 
ATOM     14  C   UNL     1      -6.566  -1.034  -0.929  1.00  0.00     0.040 A 
ATOM     15  C   UNL     1      -6.159  -1.124   1.382  1.00  0.00     0.079 A 
ATOM     16  C   UNL     1      -7.044  -1.291   0.339  1.00  0.00     0.126 A 
ATOM     17  F   UNL     1      -4.065  -0.582   2.235  1.00  0.00    -0.206 F 
ATOM     18  F   UNL     1      -8.312  -1.690   0.593  1.00  0.00    -0.207 F 
ENDBRANCH   8  11
ENDBRANCH   1   7
BRANCH   4  19
ATOM     19  C   UNL     1       2.847   1.027  -0.883  1.00  0.00     0.120 C 
BRANCH  19  20
ATOM     20  C   UNL     1       3.945   0.091  -0.565  1.00  0.00    -0.034 A 
ATOM     21  C   UNL     1       5.163   0.644  -0.211  1.00  0.00     0.005 A 
ATOM     22  C   UNL     1       3.860  -1.270  -0.602  1.00  0.00     0.005 A 
ATOM     23  C   UNL     1       6.258  -0.124   0.096  1.00  0.00     0.000 A 
ATOM     24  C   UNL     1       4.946  -2.045  -0.298  1.00  0.00     0.000 A 
ATOM     25  C   UNL     1       6.174  -1.515   0.059  1.00  0.00     0.000 A 
ENDBRANCH  19  20
ENDBRANCH   4  19
TORSDOF 4
