REMARK SMILES CC(C)CC(NC(=O)C(=NC(O)C1CCC(C)CC1)C(C)C)C(=O)CNC(C)C
REMARK SMILES IDX 6 1 7 2 8 3 5 5 4 6 2 7 1 8 3 9 23 10 24 11 25 12 26 13
REMARK SMILES IDX 27 15 28 16 29 17 9 18 10 19 11 20 12 21 13 23 14 24 19 25
REMARK SMILES IDX 15 26 18 27 16 28 17 29 20 30 21 31 22 32
REMARK H PARENT 6 4 26 14 12 22
ROOT
ATOM      1  N   UNL     1      -0.729  -1.206  -0.078  1.00  0.00    -0.341 N 
ATOM      2  C   UNL     1      -0.216  -2.513  -0.250  1.00  0.00     0.266 C 
ATOM      3  O   UNL     1      -0.959  -3.531  -0.321  1.00  0.00    -0.268 OA
ATOM      4  H   UNL     1      -0.148  -0.339  -0.034  1.00  0.00     0.164 HD
ENDROOT
BRANCH   1   5
ATOM      5  C   UNL     1      -2.252  -1.030   0.048  1.00  0.00     0.151 C 
BRANCH   5   6
ATOM      6  C   UNL     1      -2.743  -0.773  -1.311  1.00  0.00     0.036 C 
BRANCH   6   7
ATOM      7  C   UNL     1      -4.161  -0.608  -1.661  1.00  0.00    -0.015 C 
ATOM      8  C   UNL     1      -4.271  -0.387  -3.218  1.00  0.00     0.007 C 
ATOM      9  C   UNL     1      -4.957   0.495  -1.076  1.00  0.00     0.007 C 
ENDBRANCH   6   7
ENDBRANCH   5   6
BRANCH   5  10
ATOM     10  C   UNL     1      -2.321  -0.100   1.133  1.00  0.00     0.168 C 
ATOM     11  O   UNL     1      -1.150   0.350   1.473  1.00  0.00    -0.296 OA
BRANCH  10  12
ATOM     12  C   UNL     1      -3.364   0.471   1.957  1.00  0.00     0.159 C 
BRANCH  12  13
ATOM     13  N   UNL     1      -2.763   1.395   2.957  1.00  0.00    -0.308 NA
ATOM     14  H   UNL     1      -2.126   0.791   3.532  1.00  0.00     0.123 HD
BRANCH  13  15
ATOM     15  C   UNL     1      -3.737   1.955   3.836  1.00  0.00     0.047 C 
ATOM     16  C   UNL     1      -3.045   3.002   4.669  1.00  0.00     0.024 C 
ATOM     17  C   UNL     1      -4.940   2.556   3.174  1.00  0.00     0.024 C 
ENDBRANCH  13  15
ENDBRANCH  12  13
ENDBRANCH  10  12
ENDBRANCH   5  10
ENDBRANCH   1   5
BRANCH   2  18
ATOM     18  C   UNL     1       1.258  -2.620  -0.336  1.00  0.00     0.105 C 
BRANCH  18  19
ATOM     19  N   UNL     1       1.902  -1.558  -0.237  1.00  0.00    -0.253 NA
BRANCH  19  20
ATOM     20  C   UNL     1       3.253  -1.231  -0.266  1.00  0.00     0.235 C 
BRANCH  20  21
ATOM     21  O   UNL     1       3.995  -1.867  -1.284  1.00  0.00    -0.372 OA
ATOM     22  H   UNL     1       4.918  -1.957  -0.903  1.00  0.00     0.213 HD
ENDBRANCH  20  21
BRANCH  20  23
ATOM     23  C   UNL     1       3.538   0.253  -0.433  1.00  0.00     0.040 C 
ATOM     24  C   UNL     1       3.008   0.834  -1.698  1.00  0.00     0.008 C 
ATOM     25  C   UNL     1       5.009   0.575  -0.287  1.00  0.00     0.008 C 
ATOM     26  C   UNL     1       3.863   2.077  -2.002  1.00  0.00     0.004 C 
ATOM     27  C   UNL     1       5.206   2.044   0.034  1.00  0.00     0.004 C 
ATOM     28  C   UNL     1       4.109   2.817  -0.677  1.00  0.00    -0.014 C 
ATOM     29  C   UNL     1       4.627   4.178  -1.018  1.00  0.00     0.007 C 
ENDBRANCH  20  23
ENDBRANCH  19  20
ENDBRANCH  18  19
BRANCH  18  30
ATOM     30  C   UNL     1       1.799  -3.969  -0.580  1.00  0.00     0.037 C 
ATOM     31  C   UNL     1       1.358  -5.038   0.352  1.00  0.00     0.014 C 
ATOM     32  C   UNL     1       1.641  -4.381  -2.033  1.00  0.00     0.014 C 
ENDBRANCH  18  30
ENDBRANCH   2  18
TORSDOF 13
