REMARK SMILES CCC1(Cc2c[nH]c3ccccc23)C(=O)N=C(N)N(C)C1=O
REMARK SMILES IDX 3 1 14 2 15 3 16 4 17 5 18 6 19 7 20 8 21 9 22 10 2 13 1 14
REMARK SMILES IDX 4 15 5 16 6 17 13 18 7 19 12 20 8 21 11 22 9 23 10 24
REMARK H PARENT 18 11 18 12 7 25
ROOT
ATOM      1  C   UNL     1      -0.936   0.480  -0.777  1.00  0.00     0.134 C 
ATOM      2  C   UNL     1      -0.660  -0.651  -1.684  1.00  0.00     0.264 C 
ATOM      3  O   UNL     1      -0.110  -0.493  -2.818  1.00  0.00    -0.271 OA
ATOM      4  N   UNL     1      -1.005  -1.972  -1.313  1.00  0.00    -0.178 NA
ATOM      5  C   UNL     1      -2.005  -2.240  -0.543  1.00  0.00     0.205 C 
ATOM      6  N   UNL     1      -2.378  -3.547  -0.153  1.00  0.00    -0.369 N 
ATOM      7  N   UNL     1      -2.763  -1.133  -0.071  1.00  0.00    -0.285 N 
ATOM      8  C   UNL     1      -3.920  -1.338   0.811  1.00  0.00     0.156 C 
ATOM      9  C   UNL     1      -2.380   0.203  -0.469  1.00  0.00     0.245 C 
ATOM     10  O   UNL     1      -3.273   1.067  -0.538  1.00  0.00    -0.273 OA
ATOM     11  H   UNL     1      -2.102  -3.849   0.809  1.00  0.00     0.159 HD
ATOM     12  H   UNL     1      -2.905  -4.188  -0.786  1.00  0.00     0.159 HD
ENDROOT
BRANCH   1  13
ATOM     13  C   UNL     1      -0.945   1.819  -1.481  1.00  0.00     0.024 C 
ATOM     14  C   UNL     1      -1.646   2.894  -0.678  1.00  0.00     0.005 C 
ENDBRANCH   1  13
BRANCH   1  15
ATOM     15  C   UNL     1      -0.274   0.458   0.514  1.00  0.00     0.065 C 
BRANCH  15  16
ATOM     16  C   UNL     1       1.097   0.781   0.751  1.00  0.00    -0.021 A 
ATOM     17  C   UNL     1       1.576   1.981   1.303  1.00  0.00     0.087 A 
ATOM     18  C   UNL     1       2.237   0.045   0.512  1.00  0.00     0.003 A 
ATOM     19  N   UNL     1       2.894   1.966   1.387  1.00  0.00    -0.361 N 
ATOM     20  C   UNL     1       2.465  -1.201  -0.011  1.00  0.00     0.010 A 
ATOM     21  C   UNL     1       3.345   0.794   0.912  1.00  0.00     0.046 A 
ATOM     22  C   UNL     1       3.755  -1.697  -0.136  1.00  0.00     0.001 A 
ATOM     23  C   UNL     1       4.629   0.326   0.797  1.00  0.00     0.026 A 
ATOM     24  C   UNL     1       4.844  -0.927   0.271  1.00  0.00     0.002 A 
ATOM     25  H   UNL     1       3.488   2.725   1.755  1.00  0.00     0.166 HD
ENDBRANCH  15  16
ENDBRANCH   1  15
TORSDOF 3
