REMARK SMILES Cc1noc(C)c1C(=O)N=c1[nH]c(-c2ccccc2)cs1
REMARK SMILES IDX 8 1 9 2 7 3 2 4 3 5 4 6 5 7 1 8 6 9 10 10 11 11 12 12 21 13
REMARK SMILES IDX 13 14 20 15 14 17 15 18 19 19 16 20 18 21 17 22
REMARK H PARENT 12 16
ROOT
ATOM      1  C   UNL     1      -2.688   0.499  -1.261  1.00  0.00     0.285 C 
ATOM      2  O   UNL     1      -3.298   1.080  -2.211  1.00  0.00    -0.266 OA
ENDROOT
BRANCH   1   3
ATOM      3  C   UNL     1      -3.478   0.216  -0.075  1.00  0.00     0.107 A 
ATOM      4  C   UNL     1      -3.708  -0.995   0.533  1.00  0.00     0.094 A 
ATOM      5  N   UNL     1      -4.514  -0.712   1.594  1.00  0.00    -0.084 NA
ATOM      6  O   UNL     1      -4.761   0.573   1.632  1.00  0.00    -0.361 OA
ATOM      7  C   UNL     1      -4.155   1.185   0.640  1.00  0.00     0.146 A 
ATOM      8  C   UNL     1      -3.186  -2.320   0.119  1.00  0.00     0.071 C 
ATOM      9  C   UNL     1      -4.210   2.647   0.367  1.00  0.00     0.092 C 
ENDBRANCH   1   3
BRANCH   1  10
ATOM     10  N   UNL     1      -1.341   0.193  -1.445  1.00  0.00    -0.181 NA
BRANCH  10  11
ATOM     11  C   UNL     1      -0.427   0.272  -0.565  1.00  0.00     0.190 A 
ATOM     12  N   UNL     1       0.861  -0.002  -0.676  1.00  0.00    -0.330 N 
ATOM     13  S   UNL     1      -0.690   0.803   1.161  1.00  0.00    -0.105 S 
ATOM     14  C   UNL     1       1.655   0.132   0.344  1.00  0.00     0.058 A 
ATOM     15  C   UNL     1       1.084   0.573   1.537  1.00  0.00     0.095 A 
ATOM     16  H   UNL     1       1.227  -0.341  -1.640  1.00  0.00     0.169 HD
BRANCH  14  17
ATOM     17  C   UNL     1       3.110  -0.160   0.302  1.00  0.00    -0.001 A 
ATOM     18  C   UNL     1       3.740  -0.564  -0.849  1.00  0.00     0.010 A 
ATOM     19  C   UNL     1       3.881  -0.053   1.436  1.00  0.00     0.010 A 
ATOM     20  C   UNL     1       5.083  -0.862  -0.921  1.00  0.00     0.001 A 
ATOM     21  C   UNL     1       5.226  -0.349   1.370  1.00  0.00     0.001 A 
ATOM     22  C   UNL     1       5.858  -0.755   0.210  1.00  0.00     0.000 A 
ENDBRANCH  14  17
ENDBRANCH  10  11
ENDBRANCH   1  10
TORSDOF 4
