REMARK SMILES CC(=O)N1CCC(S(=O)(=O)c2ccc3c(c2)c(=O)n(C)c(=O)n3CC(=O)O)CC1
REMARK SMILES IDX 11 1 12 2 13 3 14 4 15 5 16 6 17 7 18 8 19 9 20 10 21 11
REMARK SMILES IDX 22 12 23 13 8 14 9 15 10 16 7 17 2 18 4 19 5 20 29 21 6 22
REMARK SMILES IDX 28 23 1 24 3 25 24 26 25 27 26 28 27 29
REMARK H PARENT 27 30
ROOT
ATOM      1  C   UNL     1      -0.271  -0.924   1.332  1.00  0.00     0.068 A 
ATOM      2  C   UNL     1      -1.018  -0.277   2.308  1.00  0.00     0.022 A 
ATOM      3  C   UNL     1      -2.347  -0.015   2.123  1.00  0.00     0.028 A 
ATOM      4  C   UNL     1      -2.977  -0.389   0.957  1.00  0.00     0.059 A 
ATOM      5  C   UNL     1      -2.213  -1.032  -0.001  1.00  0.00     0.065 A 
ATOM      6  C   UNL     1      -0.880  -1.308   0.155  1.00  0.00     0.036 A 
ATOM      7  C   UNL     1      -2.813  -1.419  -1.184  1.00  0.00     0.263 A 
ATOM      8  O   UNL     1      -2.206  -2.006  -2.112  1.00  0.00    -0.268 OA
ATOM      9  N   UNL     1      -4.134  -1.145  -1.342  1.00  0.00    -0.263 N 
ATOM     10  C   UNL     1      -4.852  -1.516  -2.558  1.00  0.00     0.158 C 
ATOM     11  C   UNL     1      -4.838  -0.517  -0.383  1.00  0.00     0.331 A 
ATOM     12  O   UNL     1      -6.073  -0.277  -0.566  1.00  0.00    -0.248 OA
ATOM     13  N   UNL     1      -4.279  -0.124   0.790  1.00  0.00    -0.282 N 
ENDROOT
BRANCH   1  14
ATOM     14  S   UNL     1       1.441  -1.230   1.637  1.00  0.00     0.181 S 
ATOM     15  O   UNL     1       1.594  -1.492   3.098  1.00  0.00    -0.223 OA
ATOM     16  O   UNL     1       1.790  -2.460   0.819  1.00  0.00    -0.223 OA
BRANCH  14  17
ATOM     17  C   UNL     1       2.432   0.131   1.068  1.00  0.00     0.117 C 
ATOM     18  C   UNL     1       5.953   0.764  -1.192  1.00  0.00     0.219 C 
ATOM     19  N   UNL     1       4.735   0.714  -0.454  1.00  0.00    -0.343 N 
ATOM     20  C   UNL     1       3.514   0.564  -1.183  1.00  0.00     0.121 C 
ATOM     21  C   UNL     1       4.836   0.820   0.985  1.00  0.00     0.121 C 
ATOM     22  C   UNL     1       2.304   0.264  -0.397  1.00  0.00     0.042 C 
ATOM     23  C   UNL     1       3.833  -0.139   1.556  1.00  0.00     0.042 C 
ATOM     24  C   UNL     1       5.974   0.664  -2.692  1.00  0.00     0.114 C 
ATOM     25  O   UNL     1       7.083   0.894  -0.646  1.00  0.00    -0.275 OA
ENDBRANCH  14  17
ENDBRANCH   1  14
BRANCH  13  26
ATOM     26  C   UNL     1      -5.113   0.543   1.762  1.00  0.00     0.249 C 
BRANCH  26  27
ATOM     27  C   UNL     1      -5.013   2.016   1.471  1.00  0.00     0.323 C 
ATOM     28  O   UNL     1      -4.140   2.745   2.008  1.00  0.00    -0.250 OA
BRANCH  27  29
ATOM     29  O   UNL     1      -5.887   2.646   0.589  1.00  0.00    -0.480 OA
ATOM     30  H   UNL     1      -5.512   3.369  -0.044  1.00  0.00     0.296 HD
ENDBRANCH  27  29
ENDBRANCH  26  27
ENDBRANCH  13  26
TORSDOF 5
