REMARK SMILES Cc1nc(CN(C)Cc2nc(=O)c3c(F)cccc3[nH]2)oc1C
REMARK SMILES IDX 6 1 7 2 5 3 4 4 2 5 3 6 22 7 21 8 1 9 23 10 8 11 9 12 10 13
REMARK SMILES IDX 20 14 11 15 19 16 13 17 18 18 14 19 17 20 16 21 12 23 15 24
REMARK H PARENT 20 22
ROOT
ATOM      1  N   UNL     1      -0.291   0.483   1.345  1.00  0.00    -0.290 NA
ATOM      2  C   UNL     1      -0.314   1.636   0.500  1.00  0.00     0.106 C 
ENDROOT
BRANCH   1   3
ATOM      3  C   UNL     1      -1.548   0.327   2.045  1.00  0.00     0.182 C 
BRANCH   3   4
ATOM      4  C   UNL     1      -2.705   0.165   1.133  1.00  0.00     0.208 A 
ATOM      5  C   UNL     1      -4.176  -0.869  -0.101  1.00  0.00     0.079 A 
ATOM      6  N   UNL     1      -3.116  -1.057   0.705  1.00  0.00    -0.218 NA
ATOM      7  C   UNL     1      -4.407   0.507  -0.156  1.00  0.00     0.124 A 
ATOM      8  O   UNL     1      -3.495   1.069   0.602  1.00  0.00    -0.444 OA
ATOM      9  C   UNL     1      -4.935  -1.942  -0.786  1.00  0.00     0.070 C 
ATOM     10  C   UNL     1      -5.467   1.196  -0.916  1.00  0.00     0.090 C 
ENDBRANCH   3   4
ENDBRANCH   1   3
BRANCH   1  11
ATOM     11  C   UNL     1       0.094  -0.726   0.645  1.00  0.00     0.160 C 
BRANCH  11  12
ATOM     12  C   UNL     1       1.394  -0.415  -0.021  1.00  0.00     0.124 A 
ATOM     13  N   UNL     1       1.447   0.095  -1.277  1.00  0.00    -0.194 NA
ATOM     14  N   UNL     1       2.525  -0.667   0.688  1.00  0.00    -0.342 N 
ATOM     15  C   UNL     1       2.669   0.349  -1.809  1.00  0.00     0.283 A 
ATOM     16  C   UNL     1       3.755  -0.421   0.176  1.00  0.00     0.055 A 
ATOM     17  C   UNL     1       3.831   0.099  -1.100  1.00  0.00     0.101 A 
ATOM     18  C   UNL     1       4.873  -0.696   0.943  1.00  0.00     0.027 A 
ATOM     19  C   UNL     1       5.088   0.347  -1.616  1.00  0.00     0.138 A 
ATOM     20  C   UNL     1       6.138  -0.446   0.425  1.00  0.00     0.005 A 
ATOM     21  C   UNL     1       6.231   0.080  -0.868  1.00  0.00     0.040 A 
ATOM     22  H   UNL     1       2.477  -1.064   1.665  1.00  0.00     0.168 HD
ATOM     23  O   UNL     1       2.812   0.825  -2.972  1.00  0.00    -0.267 OA
ATOM     24  F   UNL     1       5.207   0.861  -2.875  1.00  0.00    -0.206 F 
ENDBRANCH  11  12
ENDBRANCH   1  11
TORSDOF 4
