REMARK SMILES CC(C)(C)C(=O)N1CC(c2ccncc2)C1
REMARK SMILES IDX 5 1 6 2 7 3 8 4 9 5 16 6 2 7 1 8 3 9 4 10 10 11 11 12 15 13
REMARK SMILES IDX 12 14 14 15 13 16
REMARK H PARENT
ROOT
ATOM      1  C   UNL     1      -1.872  -0.904   0.532  1.00  0.00     0.227 C 
ATOM      2  O   UNL     1      -2.211  -1.991   1.109  1.00  0.00    -0.274 OA
ATOM      3  N   UNL     1      -0.485  -0.579   0.415  1.00  0.00    -0.341 N 
ATOM      4  C   UNL     1       0.343   0.480  -0.126  1.00  0.00     0.129 C 
ATOM      5  C   UNL     1       1.457   0.097   0.837  1.00  0.00     0.058 C 
ATOM      6  C   UNL     1       0.761  -1.242   0.829  1.00  0.00     0.129 C 
ENDROOT
BRANCH   1   7
ATOM      7  C   UNL     1      -2.865   0.043  -0.026  1.00  0.00     0.041 C 
ATOM      8  C   UNL     1      -2.812   1.413   0.582  1.00  0.00     0.021 C 
ATOM      9  C   UNL     1      -2.748   0.163  -1.530  1.00  0.00     0.021 C 
ATOM     10  C   UNL     1      -4.250  -0.559   0.231  1.00  0.00     0.021 C 
ENDBRANCH   1   7
BRANCH   5  11
ATOM     11  C   UNL     1       2.812   0.063   0.246  1.00  0.00    -0.038 A 
ATOM     12  C   UNL     1       3.113  -0.499  -0.968  1.00  0.00     0.024 A 
ATOM     13  C   UNL     1       3.875   0.635   0.951  1.00  0.00     0.024 A 
ATOM     14  C   UNL     1       4.385  -0.510  -1.481  1.00  0.00     0.111 A 
ATOM     15  C   UNL     1       5.151   0.603   0.395  1.00  0.00     0.111 A 
ATOM     16  N   UNL     1       5.387   0.039  -0.797  1.00  0.00    -0.265 NA
ENDBRANCH   5  11
TORSDOF 2
