REMARK SMILES COc1cccc(C(=O)Nc2c(C(c3ccccc3)N3CCCC3)[nH]c3ccccc23)c1
REMARK SMILES IDX 8 1 9 2 10 3 7 5 3 6 4 7 32 8 5 9 6 10 2 11 1 12 11 13 12 14
REMARK SMILES IDX 31 15 25 16 30 17 26 18 29 19 27 20 28 21 13 23 14 24 15 25
REMARK SMILES IDX 19 26 16 27 18 28 17 29 20 30 21 31 24 32 22 33 23 34
REMARK H PARENT 10 4 25 22
ROOT
ATOM      1  C   UNL     1      -1.585   0.619   0.366  1.00  0.00     0.255 C 
ATOM      2  O   UNL     1      -2.065  -0.557   0.286  1.00  0.00    -0.269 OA
ATOM      3  N   UNL     1      -0.399   0.731   1.160  1.00  0.00    -0.320 N 
ATOM      4  H   UNL     1       0.069   1.652   1.287  1.00  0.00     0.170 HD
ENDROOT
BRANCH   1   5
ATOM      5  C   UNL     1      -2.198   1.756  -0.301  1.00  0.00     0.043 A 
ATOM      6  C   UNL     1      -4.002   2.506  -1.725  1.00  0.00     0.119 A 
ATOM      7  C   UNL     1      -3.520   3.796  -1.659  1.00  0.00     0.046 A 
ATOM      8  C   UNL     1      -3.343   1.493  -1.049  1.00  0.00     0.060 A 
ATOM      9  C   UNL     1      -2.387   4.064  -0.921  1.00  0.00     0.005 A 
ATOM     10  C   UNL     1      -1.720   3.040  -0.237  1.00  0.00     0.014 A 
BRANCH   6  11
ATOM     11  O   UNL     1      -5.141   2.209  -2.461  1.00  0.00    -0.497 OA
ATOM     12  C   UNL     1      -5.777   3.300  -3.138  1.00  0.00     0.278 C 
ENDBRANCH   6  11
ENDBRANCH   1   5
BRANCH   3  13
ATOM     13  C   UNL     1       0.070  -0.485   1.744  1.00  0.00     0.072 A 
ATOM     14  C   UNL     1       0.950  -1.350   1.152  1.00  0.00     0.062 A 
ATOM     15  C   UNL     1      -0.263  -1.018   2.981  1.00  0.00     0.023 A 
ATOM     16  N   UNL     1       1.178  -2.396   1.965  1.00  0.00    -0.355 N 
ATOM     17  C   UNL     1      -1.099  -0.583   4.002  1.00  0.00     0.012 A 
ATOM     18  C   UNL     1       0.450  -2.211   3.080  1.00  0.00     0.048 A 
ATOM     19  C   UNL     1      -1.226  -1.365   5.156  1.00  0.00     0.001 A 
ATOM     20  C   UNL     1       0.311  -2.970   4.229  1.00  0.00     0.027 A 
ATOM     21  C   UNL     1      -0.519  -2.545   5.249  1.00  0.00     0.002 A 
ATOM     22  H   UNL     1       1.803  -3.207   1.772  1.00  0.00     0.166 HD
BRANCH  14  23
ATOM     23  C   UNL     1       1.611  -1.219  -0.197  1.00  0.00     0.136 C 
BRANCH  23  24
ATOM     24  C   UNL     1       2.625  -0.155  -0.183  1.00  0.00    -0.025 A 
ATOM     25  C   UNL     1       3.900  -0.473   0.240  1.00  0.00     0.006 A 
ATOM     26  C   UNL     1       2.388   1.152  -0.564  1.00  0.00     0.006 A 
ATOM     27  C   UNL     1       4.922   0.471   0.288  1.00  0.00     0.000 A 
ATOM     28  C   UNL     1       3.395   2.093  -0.518  1.00  0.00     0.000 A 
ATOM     29  C   UNL     1       4.673   1.779  -0.096  1.00  0.00     0.000 A 
ENDBRANCH  23  24
BRANCH  23  30
ATOM     30  N   UNL     1       2.021  -2.473  -0.727  1.00  0.00    -0.291 NA
ATOM     31  C   UNL     1       2.660  -2.431  -2.016  1.00  0.00     0.085 C 
ATOM     32  C   UNL     1       0.879  -3.326  -1.034  1.00  0.00     0.085 C 
ATOM     33  C   UNL     1       1.549  -2.054  -2.971  1.00  0.00     0.017 C 
ATOM     34  C   UNL     1       0.364  -2.698  -2.313  1.00  0.00     0.017 C 
ENDBRANCH  23  30
ENDBRANCH  14  23
ENDBRANCH   3  13
TORSDOF 6
