REMARK SMILES Cc1nn(-c2cc(C(F)(F)F)ccc2Cl)c2c1C(=O)NCC2
REMARK SMILES IDX 5 1 6 2 7 3 12 4 13 5 14 6 15 7 4 8 2 9 3 10 17 11 16 12
REMARK SMILES IDX 18 13 22 14 20 15 21 16 1 17 19 18 8 20 9 21 10 22 11 23
REMARK H PARENT 20 19
ROOT
ATOM      1  C   UNL     1       1.203   0.311  -0.213  1.00  0.00     0.084 A 
ATOM      2  C   UNL     1       2.185   0.155   0.744  1.00  0.00     0.043 A 
ATOM      3  C   UNL     1       3.485  -0.105   0.352  1.00  0.00     0.058 A 
ATOM      4  C   UNL     1       3.863  -0.220  -0.970  1.00  0.00     0.015 A 
ATOM      5  C   UNL     1       2.879  -0.063  -1.922  1.00  0.00     0.023 A 
ATOM      6  C   UNL     1       1.574   0.198  -1.537  1.00  0.00     0.066 A 
ATOM      7  Cl  UNL     1       0.391   0.382  -2.806  1.00  0.00    -0.082 Cl
ENDROOT
BRANCH   1   8
ATOM      8  N   UNL     1      -0.158   0.581   0.103  1.00  0.00    -0.235 N 
ATOM      9  C   UNL     1      -1.913   1.813   0.586  1.00  0.00     0.073 A 
ATOM     10  N   UNL     1      -0.593   1.832   0.304  1.00  0.00    -0.172 NA
ATOM     11  C   UNL     1      -2.289   0.504   0.555  1.00  0.00     0.084 A 
ATOM     12  C   UNL     1      -1.191  -0.266   0.252  1.00  0.00     0.059 A 
ATOM     13  C   UNL     1      -3.593  -0.111   0.782  1.00  0.00     0.255 C 
ATOM     14  C   UNL     1      -1.281  -1.727   0.146  1.00  0.00     0.078 C 
ATOM     15  N   UNL     1      -3.694  -1.546   0.680  1.00  0.00    -0.352 N 
ATOM     16  C   UNL     1      -2.679  -2.224  -0.078  1.00  0.00     0.122 C 
ATOM     17  C   UNL     1      -2.694   3.036   0.860  1.00  0.00     0.069 C 
ATOM     18  O   UNL     1      -4.591   0.587   1.057  1.00  0.00    -0.269 OA
ATOM     19  H   UNL     1      -4.499  -2.045   1.160  1.00  0.00     0.163 HD
ENDBRANCH   1   8
BRANCH   3  20
ATOM     20  C   UNL     1       4.559  -0.277   1.379  1.00  0.00     0.416 C 
ATOM     21  F   UNL     1       5.810  -0.027   0.803  1.00  0.00    -0.166 F 
ATOM     22  F   UNL     1       4.420   0.689   2.367  1.00  0.00    -0.166 F 
ATOM     23  F   UNL     1       4.554  -1.559   1.879  1.00  0.00    -0.166 F 
ENDBRANCH   3  20
TORSDOF 2
