REMARK SMILES CC1(C)CN(C(=O)c2cc3cc(Cl)ccc3[nH]2)CCN(C(=O)C2(NC(=O)CCC(=O)c3cccc([N+](=O)[O-])c3)CCCC2)C1
REMARK SMILES IDX 21 1 22 2 20 3 44 4 2 5 1 6 3 7 4 8 5 9 6 10 7 11 8 12 9 13
REMARK SMILES IDX 17 14 10 15 16 16 11 17 15 18 12 19 14 20 13 22 18 23 19 25
REMARK SMILES IDX 23 27 40 28 43 29 41 30 42 31 24 32 25 33 26 35 27 36 28 37
REMARK SMILES IDX 29 38 30 39 31 40 32 41 39 42 33 43 35 44 34 45 36 46 37 47
REMARK SMILES IDX 38 48
REMARK H PARENT 17 21 24 34
REMARK Flexibility Score:  391.900
ROOT
ATOM      1  C   UNL     1       0.452  -2.774  -0.652  1.00  0.00     0.248 C 
ATOM      2  O   UNL     1       0.477  -4.021  -0.279  1.00  0.00    -0.272 OA
ENDROOT
BRANCH   1   3
ATOM      3  N   UNL     1      -0.323  -1.930   0.145  1.00  0.00    -0.338 N 
BRANCH   3   4
ATOM      4  C   UNL     1      -0.938  -2.568   1.327  1.00  0.00     0.127 C 
BRANCH   4   5
ATOM      5  C   UNL     1      -2.320  -3.047   1.040  1.00  0.00    -0.000 C 
ATOM      6  C   UNL     1      -3.223  -2.680   2.180  1.00  0.00     0.015 C 
ATOM      7  C   UNL     1      -2.300  -4.548   0.896  1.00  0.00     0.015 C 
BRANCH   5   8
ATOM      8  C   UNL     1      -2.759  -2.397  -0.263  1.00  0.00     0.128 C 
BRANCH   8   9
ATOM      9  N   UNL     1      -2.919  -0.970  -0.054  1.00  0.00    -0.335 N 
BRANCH   9  10
ATOM     10  C   UNL     1      -4.256  -0.510  -0.209  1.00  0.00     0.270 C 
ATOM     11  O   UNL     1      -5.125  -1.364  -0.503  1.00  0.00    -0.267 OA
BRANCH  10  12
ATOM     12  C   UNL     1      -4.646   0.886  -0.042  1.00  0.00     0.105 A 
ATOM     13  C   UNL     1      -5.421   1.300   1.037  1.00  0.00     0.042 A 
ATOM     14  N   UNL     1      -4.381   1.957  -0.797  1.00  0.00    -0.351 N 
ATOM     15  C   UNL     1      -5.630   2.656   0.933  1.00  0.00     0.002 A 
ATOM     16  C   UNL     1      -4.968   3.046  -0.225  1.00  0.00     0.046 A 
ATOM     17  C   UNL     1      -6.319   3.553   1.725  1.00  0.00     0.030 A 
ATOM     18  C   UNL     1      -5.038   4.386  -0.541  1.00  0.00     0.028 A 
ATOM     19  C   UNL     1      -6.365   4.884   1.375  1.00  0.00     0.041 A 
ATOM     20  C   UNL     1      -5.714   5.301   0.226  1.00  0.00     0.022 A 
ATOM     21  H   UNL     1      -3.820   1.952  -1.671  1.00  0.00     0.167 HD
ATOM     22  Cl  UNL     1      -7.240   6.008   2.387  1.00  0.00    -0.084 Cl
ENDBRANCH  10  12
ENDBRANCH   9  10
BRANCH   9  23
ATOM     23  C   UNL     1      -1.879  -0.042   0.280  1.00  0.00     0.141 CG0
ATOM     24  G   UNL     1      -0.505  -0.528  -0.169  1.00  0.00     0.000 G0
ENDBRANCH   9  23
ENDBRANCH   8   9
ENDBRANCH   5   8
ENDBRANCH   4   5
ENDBRANCH   3   4
BRANCH   3  25
ATOM     25  C   UNL     1      -0.505  -0.528  -0.169  1.00  0.00     0.141 CG0
ATOM     26  G   UNL     1      -1.879  -0.042   0.280  1.00  0.00     0.000 G0
ENDBRANCH   3  25
ENDBRANCH   1   3
BRANCH   1  27
ATOM     27  C   UNL     1       1.237  -2.483  -1.840  1.00  0.00     0.119 C 
ATOM     28  C   UNL     1       0.608  -3.126  -3.091  1.00  0.00     0.038 C 
ATOM     29  C   UNL     1       2.584  -3.219  -1.695  1.00  0.00     0.038 C 
ATOM     30  C   UNL     1       1.841  -3.498  -3.883  1.00  0.00     0.003 C 
ATOM     31  C   UNL     1       2.633  -4.239  -2.796  1.00  0.00     0.003 C 
BRANCH  27  32
ATOM     32  N   UNL     1       1.539  -1.139  -2.170  1.00  0.00    -0.342 N 
ATOM     33  C   UNL     1       2.386  -0.280  -1.368  1.00  0.00     0.221 C 
ATOM     34  H   UNL     1       1.150  -0.675  -3.046  1.00  0.00     0.164 HD
ATOM     35  O   UNL     1       2.876  -0.769  -0.317  1.00  0.00    -0.275 OA
BRANCH  33  36
ATOM     36  C   UNL     1       2.637   1.112  -1.815  1.00  0.00     0.108 C 
BRANCH  36  37
ATOM     37  C   UNL     1       3.697   1.768  -0.981  1.00  0.00     0.091 C 
BRANCH  37  38
ATOM     38  C   UNL     1       3.427   1.883   0.443  1.00  0.00     0.163 C 
ATOM     39  O   UNL     1       2.400   1.501   1.049  1.00  0.00    -0.294 OA
BRANCH  38  40
ATOM     40  C   UNL     1       4.464   2.518   1.284  1.00  0.00     0.024 A 
ATOM     41  C   UNL     1       4.252   2.648   2.644  1.00  0.00     0.012 A 
ATOM     42  C   UNL     1       5.646   2.988   0.756  1.00  0.00     0.097 A 
ATOM     43  C   UNL     1       5.208   3.241   3.470  1.00  0.00     0.008 A 
ATOM     44  C   UNL     1       6.605   3.581   1.572  1.00  0.00     0.270 A 
ATOM     45  C   UNL     1       6.382   3.704   2.921  1.00  0.00     0.085 A 
BRANCH  44  46
ATOM     46  N   UNL     1       7.815   4.051   0.961  1.00  0.00     0.062 N 
ATOM     47  O   UNL     1       8.710   4.586   1.623  1.00  0.00    -0.258 OA
ATOM     48  O   UNL     1       7.937   3.876  -0.408  1.00  0.00    -0.258 OA
ENDBRANCH  44  46
ENDBRANCH  38  40
ENDBRANCH  37  38
ENDBRANCH  36  37
ENDBRANCH  33  36
ENDBRANCH  27  32
ENDBRANCH   1  27
TORSDOF 10
