REMARK SMILES COC(=O)C12CC(CC(=O)NCc3cccc(C(F)(F)F)c3)C(=O)N(CCc3ccc(O)cc3)C1=CCC(C)(C)C2
REMARK SMILES IDX 5 1 6 2 7 3 23 4 24 5 25 6 35 7 36 8 37 9 38 10 39 11 40 12
REMARK SMILES IDX 41 13 3 14 4 15 2 16 1 17 8 18 9 19 11 20 10 21 12 23 13 24
REMARK SMILES IDX 14 25 22 26 15 27 17 28 16 29 18 30 19 31 20 32 21 33 26 34
REMARK SMILES IDX 27 35 28 36 29 37 34 38 30 39 33 40 31 41 32 42
REMARK H PARENT 11 22 32 43
ROOT
ATOM      1  C   UNL     1      -1.237  -2.393   0.382  1.00  0.00     0.109 C 
ATOM      2  C   UNL     1       0.195  -2.321   0.807  1.00  0.00     0.039 C 
ATOM      3  C   UNL     1       0.966  -1.177   0.144  1.00  0.00     0.090 C 
ATOM      4  C   UNL     1       0.040  -0.202  -0.497  1.00  0.00     0.230 C 
ATOM      5  O   UNL     1       0.376   0.463  -1.537  1.00  0.00    -0.274 OA
ATOM      6  N   UNL     1      -1.275   0.051   0.002  1.00  0.00    -0.315 N 
ATOM      7  C   UNL     1      -1.947  -1.102   0.558  1.00  0.00     0.034 C 
ATOM      8  C   UNL     1      -3.109  -0.979   1.172  1.00  0.00    -0.004 C 
ATOM      9  C   UNL     1      -3.851  -2.122   1.763  1.00  0.00     0.035 C 
ATOM     10  C   UNL     1      -3.393  -3.423   1.127  1.00  0.00    -0.030 C 
ATOM     11  C   UNL     1      -3.952  -3.464  -0.258  1.00  0.00     0.011 C 
ATOM     12  C   UNL     1      -3.967  -4.593   1.888  1.00  0.00     0.011 C 
ATOM     13  C   UNL     1      -1.900  -3.465   1.210  1.00  0.00     0.032 C 
ENDROOT
BRANCH   1  14
ATOM     14  C   UNL     1      -1.246  -2.842  -1.035  1.00  0.00     0.317 C 
ATOM     15  O   UNL     1      -1.734  -2.170  -1.973  1.00  0.00    -0.251 OA
BRANCH  14  16
ATOM     16  O   UNL     1      -0.675  -4.079  -1.305  1.00  0.00    -0.468 OA
ATOM     17  C   UNL     1      -0.639  -4.587  -2.624  1.00  0.00     0.282 C 
ENDBRANCH  14  16
ENDBRANCH   1  14
BRANCH   3  18
ATOM     18  C   UNL     1       1.769  -0.541   1.246  1.00  0.00     0.113 C 
BRANCH  18  19
ATOM     19  C   UNL     1       2.602   0.600   0.809  1.00  0.00     0.221 C 
ATOM     20  N   UNL     1       3.370   1.273   1.798  1.00  0.00    -0.352 N 
ATOM     21  O   UNL     1       2.657   0.992  -0.383  1.00  0.00    -0.275 OA
ATOM     22  H   UNL     1       3.310   0.927   2.794  1.00  0.00     0.163 HD
BRANCH  20  23
ATOM     23  C   UNL     1       4.230   2.402   1.515  1.00  0.00     0.151 C 
BRANCH  23  24
ATOM     24  C   UNL     1       5.509   2.036   0.885  1.00  0.00    -0.028 A 
ATOM     25  C   UNL     1       6.570   1.734   1.740  1.00  0.00     0.005 A 
ATOM     26  C   UNL     1       5.756   1.970  -0.450  1.00  0.00     0.018 A 
ATOM     27  C   UNL     1       7.812   1.384   1.287  1.00  0.00     0.001 A 
ATOM     28  C   UNL     1       7.004   1.619  -0.936  1.00  0.00     0.056 A 
ATOM     29  C   UNL     1       8.033   1.326  -0.078  1.00  0.00     0.013 A 
BRANCH  28  30
ATOM     30  C   UNL     1       7.291   1.541  -2.402  1.00  0.00     0.416 C 
ATOM     31  F   UNL     1       8.286   0.607  -2.637  1.00  0.00    -0.166 F 
ATOM     32  F   UNL     1       7.749   2.754  -2.869  1.00  0.00    -0.166 F 
ATOM     33  F   UNL     1       6.175   1.132  -3.115  1.00  0.00    -0.166 F 
ENDBRANCH  28  30
ENDBRANCH  23  24
ENDBRANCH  20  23
ENDBRANCH  18  19
ENDBRANCH   3  18
BRANCH   6  34
ATOM     34  C   UNL     1      -1.903   1.352  -0.043  1.00  0.00     0.130 C 
BRANCH  34  35
ATOM     35  C   UNL     1      -2.700   1.549  -1.334  1.00  0.00     0.057 C 
BRANCH  35  36
ATOM     36  C   UNL     1      -3.282   2.913  -1.245  1.00  0.00    -0.046 A 
ATOM     37  C   UNL     1      -2.571   4.007  -1.743  1.00  0.00     0.007 A 
ATOM     38  C   UNL     1      -4.527   3.067  -0.666  1.00  0.00     0.007 A 
ATOM     39  C   UNL     1      -3.143   5.279  -1.647  1.00  0.00     0.046 A 
ATOM     40  C   UNL     1      -5.072   4.343  -0.583  1.00  0.00     0.046 A 
ATOM     41  C   UNL     1      -4.385   5.433  -1.069  1.00  0.00     0.115 A 
BRANCH  41  42
ATOM     42  O   UNL     1      -4.983   6.672  -0.955  1.00  0.00    -0.508 OA
ATOM     43  H   UNL     1      -5.125   7.053  -0.008  1.00  0.00     0.293 HD
ENDBRANCH  41  42
ENDBRANCH  35  36
ENDBRANCH  34  35
ENDBRANCH   6  34
TORSDOF 11
