REMARK SMILES CN(C)CCN(C)c1nc2ccc(Cl)cc2c(=O)o1
REMARK SMILES IDX 5 1 4 2 2 3 1 4 3 5 6 6 7 7 8 8 9 9 19 10 10 11 17 12 11 13
REMARK SMILES IDX 16 14 12 15 15 16 13 17 18 18 14 19
REMARK H PARENT
ROOT
ATOM      1  C   UNL     1      -1.281  -0.221   1.129  1.00  0.00     0.136 C 
ENDROOT
BRANCH   1   2
ATOM      2  C   UNL     1      -2.201   0.891   0.685  1.00  0.00     0.105 C 
BRANCH   2   3
ATOM      3  N   UNL     1      -3.296   0.358  -0.104  1.00  0.00    -0.308 NA
ATOM      4  C   UNL     1      -4.125   1.446  -0.628  1.00  0.00     0.105 C 
ATOM      5  C   UNL     1      -4.130  -0.531   0.703  1.00  0.00     0.105 C 
ENDBRANCH   2   3
ENDBRANCH   1   2
BRANCH   1   6
ATOM      6  N   UNL     1      -0.696  -0.905  -0.007  1.00  0.00    -0.328 N 
ATOM      7  C   UNL     1      -1.452  -1.734  -0.909  1.00  0.00     0.148 C 
BRANCH   6   8
ATOM      8  C   UNL     1       0.719  -0.731  -0.245  1.00  0.00     0.300 A 
ATOM      9  N   UNL     1       1.447   0.042   0.575  1.00  0.00    -0.196 NA
ATOM     10  O   UNL     1       1.291  -1.340  -1.278  1.00  0.00    -0.389 OA
ATOM     11  C   UNL     1       2.757   0.234   0.397  1.00  0.00     0.083 A 
ATOM     12  C   UNL     1       2.570  -1.209  -1.530  1.00  0.00     0.348 A 
ATOM     13  C   UNL     1       3.529   1.027   1.231  1.00  0.00     0.031 A 
ATOM     14  C   UNL     1       3.345  -0.411  -0.692  1.00  0.00     0.087 A 
ATOM     15  C   UNL     1       4.885   1.180   0.987  1.00  0.00     0.023 A 
ATOM     16  C   UNL     1       4.699  -0.269  -0.951  1.00  0.00     0.038 A 
ATOM     17  C   UNL     1       5.427   0.527  -0.098  1.00  0.00     0.042 A 
ATOM     18  O   UNL     1       3.079  -1.807  -2.527  1.00  0.00    -0.246 OA
ATOM     19  Cl  UNL     1       7.157   0.751  -0.373  1.00  0.00    -0.084 Cl
ENDBRANCH   6   8
ENDBRANCH   1   6
TORSDOF 4
