REMARK SMILES Fc1ccccc1-n1cnc(Br)c1
REMARK SMILES IDX 1 1 2 2 3 3 4 4 5 5 6 6 7 7 8 8 9 9 13 10 10 11 11 12 12 13
REMARK H PARENT
ROOT
ATOM      1  F   UNL     1      -0.948  -2.332  -0.249  1.00  0.00    -0.205 F 
ATOM      2  C   UNL     1      -1.246  -1.050   0.036  1.00  0.00     0.147 A 
ATOM      3  C   UNL     1      -2.523  -0.629   0.354  1.00  0.00     0.041 A 
ATOM      4  C   UNL     1      -2.839   0.674   0.647  1.00  0.00     0.003 A 
ATOM      5  C   UNL     1      -1.844   1.633   0.628  1.00  0.00     0.002 A 
ATOM      6  C   UNL     1      -0.578   1.217   0.313  1.00  0.00     0.030 A 
ATOM      7  C   UNL     1      -0.254  -0.093   0.018  1.00  0.00     0.082 A 
ENDROOT
BRANCH   7   8
ATOM      8  N   UNL     1       1.101  -0.385  -0.292  1.00  0.00    -0.302 N 
ATOM      9  C   UNL     1       1.622  -1.117  -1.290  1.00  0.00     0.205 A 
ATOM     10  C   UNL     1       2.121   0.102   0.477  1.00  0.00     0.129 A 
ATOM     11  N   UNL     1       2.959  -1.082  -1.137  1.00  0.00    -0.229 NA
ATOM     12  C   UNL     1       3.304  -0.348  -0.070  1.00  0.00     0.124 A 
ATOM     13  Br  UNL     1       5.035   0.049   0.624  1.00  0.00    -0.027 Br
ENDBRANCH   7   8
TORSDOF 1
