REMARK SMILES COc1ccc(C(=O)NNC(=O)CNC(=O)c2ccco2)cc1[N+](=O)[O-]
REMARK SMILES IDX 7 1 8 2 9 3 6 5 3 6 4 7 23 8 5 9 22 10 2 11 1 12 24 13 25 14
REMARK SMILES IDX 26 15 10 16 11 17 12 19 13 20 14 21 15 22 16 24 17 25 18 26
REMARK SMILES IDX 21 27 19 28 20 29
REMARK H PARENT 9 4 10 18 14 23
ROOT
ATOM      1  C   UNL     1       1.645  -0.077  -1.561  1.00  0.00     0.269 C 
ATOM      2  O   UNL     1       1.640   0.047  -2.818  1.00  0.00    -0.267 OA
ATOM      3  N   UNL     1       0.362  -0.194  -0.942  1.00  0.00    -0.263 N 
ATOM      4  H   UNL     1       0.267  -0.298   0.073  1.00  0.00     0.191 HD
ENDROOT
BRANCH   1   5
ATOM      5  C   UNL     1       2.877  -0.099  -0.793  1.00  0.00     0.048 A 
ATOM      6  C   UNL     1       5.316  -0.128   0.574  1.00  0.00     0.196 A 
ATOM      7  C   UNL     1       4.123  -0.246   1.255  1.00  0.00     0.055 A 
ATOM      8  C   UNL     1       5.284   0.007  -0.815  1.00  0.00     0.311 A 
ATOM      9  C   UNL     1       2.923  -0.231   0.579  1.00  0.00     0.018 A 
ATOM     10  C   UNL     1       4.069   0.019  -1.472  1.00  0.00     0.103 A 
BRANCH   6  11
ATOM     11  O   UNL     1       6.557  -0.135   1.194  1.00  0.00    -0.490 OA
ATOM     12  C   UNL     1       6.586  -0.272   2.601  1.00  0.00     0.278 C 
ENDBRANCH   6  11
BRANCH   8  13
ATOM     13  N   UNL     1       6.502   0.130  -1.539  1.00  0.00     0.066 N 
ATOM     14  O   UNL     1       6.475   0.741  -2.618  1.00  0.00    -0.258 OA
ATOM     15  O   UNL     1       7.696  -0.393  -1.100  1.00  0.00    -0.258 OA
ENDBRANCH   8  13
ENDBRANCH   1   5
BRANCH   3  16
ATOM     16  N   UNL     1      -0.785  -0.164  -1.754  1.00  0.00    -0.266 N 
ATOM     17  C   UNL     1      -2.080  -0.277  -1.183  1.00  0.00     0.257 C 
ATOM     18  H   UNL     1      -0.729  -0.061  -2.782  1.00  0.00     0.191 HD
ATOM     19  O   UNL     1      -2.198  -0.404   0.054  1.00  0.00    -0.271 OA
BRANCH  17  20
ATOM     20  C   UNL     1      -3.289  -0.247  -2.031  1.00  0.00     0.218 C 
BRANCH  20  21
ATOM     21  N   UNL     1      -4.482  -0.376  -1.249  1.00  0.00    -0.340 N 
ATOM     22  C   UNL     1      -4.797   0.575  -0.241  1.00  0.00     0.287 C 
ATOM     23  H   UNL     1      -5.171  -1.167  -1.380  1.00  0.00     0.164 HD
ATOM     24  O   UNL     1      -4.078   1.558   0.024  1.00  0.00    -0.266 OA
BRANCH  22  25
ATOM     25  C   UNL     1      -6.036   0.408   0.544  1.00  0.00     0.191 A 
ATOM     26  C   UNL     1      -6.475   1.243   1.549  1.00  0.00     0.056 A 
ATOM     27  O   UNL     1      -6.916  -0.535   0.433  1.00  0.00    -0.459 OA
ATOM     28  C   UNL     1      -7.673   0.734   2.025  1.00  0.00     0.043 A 
ATOM     29  C   UNL     1      -7.907  -0.409   1.271  1.00  0.00     0.196 A 
ENDBRANCH  22  25
ENDBRANCH  20  21
ENDBRANCH  17  20
ENDBRANCH   3  16
TORSDOF 7
