REMARK SMILES Cc1[nH]c(=NC(=O)C(Cc2ccccc2)NC(=O)Cc2cccnc2)sc1-c1ccc(C(C)(C)C)cc1
REMARK SMILES IDX 5 1 4 2 2 3 3 4 27 5 26 6 1 7 28 9 29 10 37 11 30 12 36 13
REMARK SMILES IDX 31 14 32 15 33 16 34 17 35 18 6 19 7 20 8 21 9 22 10 23
REMARK SMILES IDX 11 24 15 25 12 26 14 27 13 28 16 29 17 30 18 32 19 33 20 34
REMARK SMILES IDX 21 35 25 36 22 37 24 38 23 39
REMARK H PARENT 3 8 16 31
ROOT
ATOM      1  N   UNL     1      -0.855  -0.589   1.681  1.00  0.00    -0.183 NA
ENDROOT
BRANCH   1   2
ATOM      2  C   UNL     1       0.042  -0.127   0.949  1.00  0.00     0.190 A 
ATOM      3  C   UNL     1       1.350   0.900  -0.620  1.00  0.00     0.032 A 
ATOM      4  N   UNL     1       0.177   0.614  -0.116  1.00  0.00    -0.334 N 
ATOM      5  C   UNL     1       2.461   0.388   0.016  1.00  0.00     0.057 A 
ATOM      6  S   UNL     1       1.773  -0.523   1.367  1.00  0.00    -0.096 S 
ATOM      7  C   UNL     1       1.511   1.751  -1.867  1.00  0.00     0.066 C 
ATOM      8  H   UNL     1      -0.735   1.004  -0.583  1.00  0.00     0.169 HD
BRANCH   5   9
ATOM      9  C   UNL     1       3.879   0.446  -0.177  1.00  0.00    -0.006 A 
ATOM     10  C   UNL     1       4.690  -0.249   0.731  1.00  0.00     0.010 A 
ATOM     11  C   UNL     1       4.552   1.120  -1.159  1.00  0.00     0.010 A 
ATOM     12  C   UNL     1       6.075  -0.239   0.619  1.00  0.00     0.005 A 
ATOM     13  C   UNL     1       5.938   1.137  -1.279  1.00  0.00     0.005 A 
ATOM     14  C   UNL     1       6.706   0.450  -0.380  1.00  0.00    -0.043 A 
BRANCH  14  15
ATOM     15  C   UNL     1       8.189   0.433  -0.454  1.00  0.00    -0.013 C 
ATOM     16  C   UNL     1       8.577  -0.765  -1.319  1.00  0.00     0.016 C 
ATOM     17  C   UNL     1       8.820   0.369   0.910  1.00  0.00     0.016 C 
ATOM     18  C   UNL     1       8.647   1.723  -1.125  1.00  0.00     0.016 C 
ENDBRANCH  14  15
ENDBRANCH   5   9
ENDBRANCH   1   2
BRANCH   1  19
ATOM     19  C   UNL     1      -2.219  -0.356   1.468  1.00  0.00     0.271 C 
ATOM     20  O   UNL     1      -2.840   0.297   2.374  1.00  0.00    -0.270 OA
BRANCH  19  21
ATOM     21  C   UNL     1      -3.020  -0.786   0.307  1.00  0.00     0.178 C 
BRANCH  21  22
ATOM     22  C   UNL     1      -2.897  -2.243   0.011  1.00  0.00     0.070 C 
BRANCH  22  23
ATOM     23  C   UNL     1      -3.324  -3.135   1.108  1.00  0.00    -0.045 A 
ATOM     24  C   UNL     1      -4.661  -3.533   1.146  1.00  0.00     0.004 A 
ATOM     25  C   UNL     1      -2.464  -3.593   2.086  1.00  0.00     0.004 A 
ATOM     26  C   UNL     1      -5.125  -4.378   2.154  1.00  0.00     0.000 A 
ATOM     27  C   UNL     1      -2.898  -4.425   3.088  1.00  0.00     0.000 A 
ATOM     28  C   UNL     1      -4.214  -4.798   3.099  1.00  0.00     0.000 A 
ENDBRANCH  22  23
ENDBRANCH  21  22
BRANCH  21  29
ATOM     29  N   UNL     1      -4.392  -0.351   0.583  1.00  0.00    -0.344 N 
ATOM     30  C   UNL     1      -5.041   0.643  -0.206  1.00  0.00     0.225 C 
ATOM     31  H   UNL     1      -4.854  -0.820   1.397  1.00  0.00     0.164 HD
ATOM     32  O   UNL     1      -4.473   1.206  -1.191  1.00  0.00    -0.275 OA
BRANCH  30  33
ATOM     33  C   UNL     1      -6.442   0.985   0.201  1.00  0.00     0.137 C 
BRANCH  33  34
ATOM     34  C   UNL     1      -7.043   2.041  -0.633  1.00  0.00    -0.020 A 
ATOM     35  C   UNL     1      -7.774   1.842  -1.763  1.00  0.00     0.007 A 
ATOM     36  C   UNL     1      -6.838   3.352  -0.219  1.00  0.00     0.115 A 
ATOM     37  C   UNL     1      -8.287   2.933  -2.462  1.00  0.00     0.020 A 
ATOM     38  N   UNL     1      -7.326   4.409  -0.882  1.00  0.00    -0.264 NA
ATOM     39  C   UNL     1      -8.047   4.222  -1.997  1.00  0.00     0.111 A 
ENDBRANCH  33  34
ENDBRANCH  30  33
ENDBRANCH  21  29
ENDBRANCH  19  21
ENDBRANCH   1  19
TORSDOF 10
