REMARK SMILES O=C1NC2(CCCCC2)Nc2ccccc21
REMARK SMILES IDX 1 1 2 2 3 3 4 4 5 5 6 6 7 7 8 8 9 9 10 10 11 11 12 12 13 13
REMARK SMILES IDX 14 14 15 15 16 16
REMARK H PARENT 3 17 10 18
ROOT
ATOM      1  O   UNL     1      -1.660  -3.011   0.402  1.00  0.00    -0.269 OA
ATOM      2  C   UNL     1      -1.262  -1.894  -0.001  1.00  0.00     0.255 C 
ATOM      3  N   UNL     1       0.050  -1.716  -0.521  1.00  0.00    -0.329 N 
ATOM      4  C   UNL     1       0.658  -0.395  -0.458  1.00  0.00     0.110 C 
ATOM      5  C   UNL     1       0.918  -0.059   0.978  1.00  0.00     0.051 C 
ATOM      6  C   UNL     1       2.332  -0.456   1.332  1.00  0.00     0.004 C 
ATOM      7  C   UNL     1       3.230   0.527   0.593  1.00  0.00     0.000 C 
ATOM      8  C   UNL     1       2.941   0.612  -0.864  1.00  0.00     0.004 C 
ATOM      9  C   UNL     1       1.857  -0.320  -1.336  1.00  0.00     0.051 C 
ATOM     10  N   UNL     1      -0.332   0.590  -0.914  1.00  0.00    -0.362 N 
ATOM     11  C   UNL     1      -1.650   0.502  -0.412  1.00  0.00     0.049 A 
ATOM     12  C   UNL     1      -2.462   1.614  -0.372  1.00  0.00     0.026 A 
ATOM     13  C   UNL     1      -3.754   1.569   0.110  1.00  0.00     0.002 A 
ATOM     14  C   UNL     1      -4.206   0.344   0.557  1.00  0.00     0.001 A 
ATOM     15  C   UNL     1      -3.434  -0.799   0.539  1.00  0.00     0.016 A 
ATOM     16  C   UNL     1      -2.148  -0.712   0.050  1.00  0.00     0.063 A 
ATOM     17  H   UNL     1       0.561  -2.545  -0.946  1.00  0.00     0.166 HD
ATOM     18  H   UNL     1      -0.063   1.344  -1.599  1.00  0.00     0.162 HD
ENDROOT
TORSDOF 0
