REMARK SMILES NC(N)=NN=Cc1ccccc1OC(=O)c1cccs1
REMARK SMILES IDX 6 1 5 2 4 3 2 4 1 5 3 6 7 11 8 12 12 13 9 14 11 15 10 16
REMARK SMILES IDX 13 17 14 18 15 19 16 20 17 21 20 22 18 23 19 24
REMARK H PARENT 1 7 1 8 3 9 3 10
ROOT
ATOM      1  C   UNL     1       0.010  -0.004   1.201  1.00  0.00     0.147 C 
ENDROOT
BRANCH   1   2
ATOM      2  N   UNL     1       0.484  -0.273   2.340  1.00  0.00    -0.155 NA
BRANCH   2   3
ATOM      3  N   UNL     1       1.284   0.581   3.055  1.00  0.00    -0.115 NA
BRANCH   3   4
ATOM      4  C   UNL     1       2.288   0.075   3.701  1.00  0.00     0.211 C 
ATOM      5  N   UNL     1       3.103   0.980   4.435  1.00  0.00    -0.369 N 
ATOM      6  N   UNL     1       2.575  -1.327   3.686  1.00  0.00    -0.369 N 
ATOM      7  H   UNL     1       3.127   0.950   5.482  1.00  0.00     0.159 HD
ATOM      8  H   UNL     1       3.702   1.701   3.974  1.00  0.00     0.159 HD
ATOM      9  H   UNL     1       3.578  -1.655   3.683  1.00  0.00     0.159 HD
ATOM     10  H   UNL     1       1.790  -2.022   3.679  1.00  0.00     0.159 HD
ENDBRANCH   3   4
ENDBRANCH   2   3
ENDBRANCH   1   2
BRANCH   1  11
ATOM     11  C   UNL     1       0.164   1.179   0.396  1.00  0.00     0.037 A 
ATOM     12  C   UNL     1       0.891   2.296   0.731  1.00  0.00     0.013 A 
ATOM     13  C   UNL     1      -0.472   1.239  -0.855  1.00  0.00     0.140 A 
ATOM     14  C   UNL     1       0.998   3.407  -0.096  1.00  0.00     0.001 A 
ATOM     15  C   UNL     1      -0.368   2.338  -1.676  1.00  0.00     0.048 A 
ATOM     16  C   UNL     1       0.370   3.446  -1.312  1.00  0.00     0.004 A 
BRANCH  13  17
ATOM     17  O   UNL     1      -1.244   0.179  -1.324  1.00  0.00    -0.422 OA
BRANCH  17  18
ATOM     18  C   UNL     1      -0.745  -0.863  -2.077  1.00  0.00     0.353 C 
ATOM     19  O   UNL     1       0.456  -0.962  -2.415  1.00  0.00    -0.245 OA
BRANCH  18  20
ATOM     20  C   UNL     1      -1.657  -1.901  -2.500  1.00  0.00     0.113 A 
ATOM     21  C   UNL     1      -3.026  -2.030  -2.262  1.00  0.00     0.027 A 
ATOM     22  S   UNL     1      -1.247  -3.312  -3.458  1.00  0.00    -0.137 S 
ATOM     23  C   UNL     1      -3.649  -3.086  -2.763  1.00  0.00     0.013 A 
ATOM     24  C   UNL     1      -2.920  -4.004  -3.493  1.00  0.00     0.066 A 
ENDBRANCH  18  20
ENDBRANCH  17  18
ENDBRANCH  13  17
ENDBRANCH   1  11
TORSDOF 7
