REMARK SMILES O=C1CSc2nnc(-c3ccccc3F)n2C1c1ccccc1F
REMARK SMILES IDX 1 1 2 2 3 3 4 4 5 5 6 6 7 7 8 8 16 9 17 10 18 11 19 12 23 13
REMARK SMILES IDX 20 14 22 15 21 16 24 17 9 18 10 19 14 20 11 21 13 22 12 23
REMARK SMILES IDX 15 24
REMARK H PARENT
ROOT
ATOM      1  O   UNL     1      -1.541   1.849  -2.418  1.00  0.00    -0.296 OA
ATOM      2  C   UNL     1      -1.630   2.095  -1.239  1.00  0.00     0.170 C 
ATOM      3  C   UNL     1      -2.212   3.466  -0.921  1.00  0.00     0.156 C 
ATOM      4  S   UNL     1      -1.670   3.854   0.799  1.00  0.00    -0.078 SA
ATOM      5  C   UNL     1      -0.066   3.026   0.947  1.00  0.00     0.192 A 
ATOM      6  N   UNL     1       1.129   3.369   1.439  1.00  0.00    -0.123 NA
ATOM      7  N   UNL     1       1.942   2.384   1.245  1.00  0.00    -0.129 NA
ATOM      8  C   UNL     1       1.252   1.377   0.610  1.00  0.00     0.168 A 
ATOM      9  N   UNL     1       0.006   1.751   0.419  1.00  0.00    -0.287 N 
ATOM     10  C   UNL     1      -1.256   1.267  -0.100  1.00  0.00     0.192 C 
ENDROOT
BRANCH  10  11
ATOM     11  C   UNL     1      -1.502  -0.152  -0.086  1.00  0.00     0.018 A 
ATOM     12  C   UNL     1      -1.211  -0.822   1.118  1.00  0.00     0.009 A 
ATOM     13  C   UNL     1      -1.992  -0.947  -1.090  1.00  0.00     0.128 A 
ATOM     14  C   UNL     1      -1.403  -2.169   1.271  1.00  0.00     0.001 A 
ATOM     15  C   UNL     1      -2.189  -2.325  -0.934  1.00  0.00     0.039 A 
ATOM     16  C   UNL     1      -1.896  -2.956   0.254  1.00  0.00     0.003 A 
ATOM     17  F   UNL     1      -2.327  -0.453  -2.299  1.00  0.00    -0.207 F 
ENDBRANCH  10  11
BRANCH   8  18
ATOM     18  C   UNL     1       1.937   0.137   0.283  1.00  0.00     0.055 A 
ATOM     19  C   UNL     1       1.598  -0.727  -0.722  1.00  0.00     0.015 A 
ATOM     20  C   UNL     1       3.010  -0.274   1.090  1.00  0.00     0.134 A 
ATOM     21  C   UNL     1       2.265  -1.939  -0.938  1.00  0.00     0.001 A 
ATOM     22  C   UNL     1       3.665  -1.456   0.884  1.00  0.00     0.040 A 
ATOM     23  C   UNL     1       3.311  -2.317  -0.131  1.00  0.00     0.003 A 
ATOM     24  F   UNL     1       3.410   0.536   2.116  1.00  0.00    -0.206 F 
ENDBRANCH   8  18
TORSDOF 2
