REMARK SMILES CCOC(=O)C(Cc1ccccc1[N+](=O)[O-])=NNc1ccccc1[N+](=O)[O-]
REMARK SMILES IDX 6 1 4 2 5 3 3 4 2 5 1 6 7 7 8 8 9 9 13 10 10 11 12 12 11 13
REMARK SMILES IDX 14 14 15 15 16 16 17 17 18 18 19 20 20 21 24 22 21 23 23 24
REMARK SMILES IDX 22 25 25 26 26 27 27 28
REMARK H PARENT 18 19
ROOT
ATOM      1  C   UNL     1      -0.097   0.452  -0.174  1.00  0.00     0.150 C 
ENDROOT
BRANCH   1   2
ATOM      2  C   UNL     1      -0.720   1.550  -0.923  1.00  0.00     0.354 C 
ATOM      3  O   UNL     1      -0.020   2.196  -1.741  1.00  0.00    -0.245 OA
BRANCH   2   4
ATOM      4  O   UNL     1      -2.050   1.904  -0.766  1.00  0.00    -0.461 OA
BRANCH   4   5
ATOM      5  C   UNL     1      -2.633   2.979  -1.506  1.00  0.00     0.230 C 
ATOM      6  C   UNL     1      -1.876   4.237  -1.157  1.00  0.00     0.049 C 
ENDBRANCH   4   5
ENDBRANCH   2   4
ENDBRANCH   1   2
BRANCH   1   7
ATOM      7  C   UNL     1      -0.955  -0.288   0.772  1.00  0.00     0.108 C 
BRANCH   7   8
ATOM      8  C   UNL     1      -2.088  -0.997   0.085  1.00  0.00     0.036 A 
ATOM      9  C   UNL     1      -2.223  -1.013  -1.282  1.00  0.00     0.011 A 
ATOM     10  C   UNL     1      -3.046  -1.672   0.825  1.00  0.00     0.272 A 
ATOM     11  C   UNL     1      -3.260  -1.665  -1.938  1.00  0.00     0.001 A 
ATOM     12  C   UNL     1      -4.073  -2.318   0.165  1.00  0.00     0.086 A 
ATOM     13  C   UNL     1      -4.205  -2.332  -1.196  1.00  0.00     0.007 A 
BRANCH  10  14
ATOM     14  N   UNL     1      -3.034  -1.754   2.238  1.00  0.00     0.063 N 
ATOM     15  O   UNL     1      -3.561  -2.760   2.788  1.00  0.00    -0.258 OA
ATOM     16  O   UNL     1      -2.493  -0.828   3.079  1.00  0.00    -0.258 OA
ENDBRANCH  10  14
ENDBRANCH   7   8
ENDBRANCH   1   7
BRANCH   1  17
ATOM     17  N   UNL     1       1.139   0.223  -0.405  1.00  0.00    -0.172 NA
BRANCH  17  18
ATOM     18  N   UNL     1       1.836  -0.779   0.235  1.00  0.00    -0.271 N 
ATOM     19  H   UNL     1       1.260  -1.642   0.472  1.00  0.00     0.190 HD
BRANCH  18  20
ATOM     20  C   UNL     1       3.188  -0.816   0.600  1.00  0.00     0.134 A 
ATOM     21  C   UNL     1       3.635  -1.888   1.386  1.00  0.00     0.035 A 
ATOM     22  C   UNL     1       4.130   0.127   0.264  1.00  0.00     0.294 A 
ATOM     23  C   UNL     1       4.920  -2.025   1.817  1.00  0.00     0.003 A 
ATOM     24  C   UNL     1       5.451  -0.024   0.714  1.00  0.00     0.088 A 
ATOM     25  C   UNL     1       5.862  -1.081   1.483  1.00  0.00     0.007 A 
BRANCH  22  26
ATOM     26  N   UNL     1       3.881   1.268  -0.519  1.00  0.00     0.065 N 
ATOM     27  O   UNL     1       4.582   2.302  -0.273  1.00  0.00    -0.258 OA
ATOM     28  O   UNL     1       2.968   1.418  -1.514  1.00  0.00    -0.258 OA
ENDBRANCH  22  26
ENDBRANCH  18  20
ENDBRANCH  17  18
ENDBRANCH   1  17
TORSDOF 10
