REMARK SMILES O=C(Nc1ccccc1F)c1cccc(OCC(=O)N2CCCCC2)c1
REMARK SMILES IDX 11 1 12 2 13 3 14 4 15 5 26 6 2 7 3 8 1 9 4 11 5 12 9 13
REMARK SMILES IDX 6 14 8 15 7 16 10 17 16 18 17 19 18 20 20 21 21 22 25 23
REMARK SMILES IDX 22 24 24 25 23 26 19 27
REMARK H PARENT 3 10
ROOT
ATOM      1  C   UNL     1      -1.447  -0.936  -0.098  1.00  0.00     0.043 A 
ATOM      2  C   UNL     1      -1.144  -1.665   1.030  1.00  0.00     0.014 A 
ATOM      3  C   UNL     1       0.048  -2.323   1.181  1.00  0.00     0.005 A 
ATOM      4  C   UNL     1       0.962  -2.236   0.151  1.00  0.00     0.046 A 
ATOM      5  C   UNL     1       0.707  -1.521  -0.995  1.00  0.00     0.120 A 
ATOM      6  C   UNL     1      -0.513  -0.869  -1.110  1.00  0.00     0.060 A 
ENDROOT
BRANCH   1   7
ATOM      7  C   UNL     1      -2.707  -0.226  -0.286  1.00  0.00     0.255 C 
ATOM      8  N   UNL     1      -3.744  -0.224   0.687  1.00  0.00    -0.319 N 
ATOM      9  O   UNL     1      -2.950   0.440  -1.347  1.00  0.00    -0.269 OA
ATOM     10  H   UNL     1      -3.629  -0.742   1.582  1.00  0.00     0.170 HD
BRANCH   8  11
ATOM     11  C   UNL     1      -4.971   0.468   0.501  1.00  0.00     0.077 A 
ATOM     12  C   UNL     1      -5.061   1.786   0.927  1.00  0.00     0.029 A 
ATOM     13  C   UNL     1      -6.065  -0.135  -0.088  1.00  0.00     0.146 A 
ATOM     14  C   UNL     1      -6.254   2.467   0.748  1.00  0.00     0.002 A 
ATOM     15  C   UNL     1      -7.261   0.517  -0.278  1.00  0.00     0.041 A 
ATOM     16  C   UNL     1      -7.336   1.836   0.154  1.00  0.00     0.003 A 
ATOM     17  F   UNL     1      -5.912  -1.421  -0.481  1.00  0.00    -0.205 F 
ENDBRANCH   8  11
ENDBRANCH   1   7
BRANCH   5  18
ATOM     18  O   UNL     1       1.599  -1.409  -2.053  1.00  0.00    -0.484 OA
BRANCH  18  19
ATOM     19  C   UNL     1       2.836  -2.051  -1.964  1.00  0.00     0.329 C 
BRANCH  19  20
ATOM     20  C   UNL     1       3.663  -1.520  -0.886  1.00  0.00     0.260 C 
ATOM     21  N   UNL     1       3.546  -0.343  -0.150  1.00  0.00    -0.340 N 
ATOM     22  C   UNL     1       2.580   0.714  -0.301  1.00  0.00     0.119 C 
ATOM     23  C   UNL     1       4.528  -0.109   0.944  1.00  0.00     0.119 C 
ATOM     24  C   UNL     1       3.358   2.015   0.002  1.00  0.00     0.022 C 
ATOM     25  C   UNL     1       5.551   0.884   0.381  1.00  0.00     0.022 C 
ATOM     26  C   UNL     1       4.759   1.816  -0.545  1.00  0.00     0.004 C 
ATOM     27  O   UNL     1       4.674  -2.279  -0.572  1.00  0.00    -0.271 OA
ENDBRANCH  19  20
ENDBRANCH  18  19
ENDBRANCH   5  18
TORSDOF 5
