REMARK SMILES Nc1ccc(=NC(=O)c2ccc(Cl)cc2)[nH]c1
REMARK SMILES IDX 6 1 5 2 2 3 3 4 17 5 4 6 16 7 1 9 7 12 8 13 9 14 10 15 15 16
REMARK SMILES IDX 11 17 14 18 12 19 13 20
REMARK H PARENT 16 8 1 10 1 11
ROOT
ATOM      1  N   UNL     1       0.025   1.005   0.143  1.00  0.00    -0.191 NA
ENDROOT
BRANCH   1   2
ATOM      2  C   UNL     1      -1.221   0.673   0.114  1.00  0.00     0.134 A 
ATOM      3  C   UNL     1      -3.904   0.042   0.222  1.00  0.00     0.048 A 
ATOM      4  C   UNL     1      -3.329   0.713   1.296  1.00  0.00     0.031 A 
ATOM      5  C   UNL     1      -3.120  -0.288  -0.865  1.00  0.00     0.109 A 
ATOM      6  C   UNL     1      -1.969   1.031   1.237  1.00  0.00     0.049 A 
ATOM      7  N   UNL     1      -1.794   0.025  -0.916  1.00  0.00    -0.345 N 
ATOM      8  H   UNL     1      -1.205  -0.227  -1.741  1.00  0.00     0.168 HD
BRANCH   3   9
ATOM      9  N   UNL     1      -5.290  -0.279   0.287  1.00  0.00    -0.398 N 
ATOM     10  H   UNL     1      -5.668  -0.886   1.055  1.00  0.00     0.156 HD
ATOM     11  H   UNL     1      -5.965   0.095  -0.445  1.00  0.00     0.156 HD
ENDBRANCH   3   9
ENDBRANCH   1   2
BRANCH   1  12
ATOM     12  C   UNL     1       0.966   0.746  -0.878  1.00  0.00     0.278 C 
ATOM     13  O   UNL     1       0.737   1.034  -2.099  1.00  0.00    -0.267 OA
BRANCH  12  14
ATOM     14  C   UNL     1       2.235   0.127  -0.483  1.00  0.00     0.042 A 
ATOM     15  C   UNL     1       2.648  -1.097  -0.970  1.00  0.00     0.015 A 
ATOM     16  C   UNL     1       3.028   0.814   0.411  1.00  0.00     0.015 A 
ATOM     17  C   UNL     1       3.866  -1.591  -0.531  1.00  0.00     0.021 A 
ATOM     18  C   UNL     1       4.248   0.331   0.859  1.00  0.00     0.021 A 
ATOM     19  C   UNL     1       4.665  -0.908   0.365  1.00  0.00     0.041 A 
ATOM     20  Cl  UNL     1       6.204  -1.554   0.908  1.00  0.00    -0.084 Cl
ENDBRANCH  12  14
ENDBRANCH   1  12
TORSDOF 4
