REMARK SMILES O=C(Cc1ccsc1)N1CCC(c2cccnc2)C1
REMARK SMILES IDX 1 1 2 2 3 3 4 4 5 5 8 6 6 7 7 8 9 9 10 10 19 11 11 12 12 13
REMARK SMILES IDX 13 14 14 15 18 16 15 17 17 18 16 19
REMARK H PARENT
ROOT
ATOM      1  O   UNL     1       2.032   0.515  -1.782  1.00  0.00    -0.275 OA
ATOM      2  C   UNL     1       1.799   0.153  -0.594  1.00  0.00     0.227 C 
ENDROOT
BRANCH   2   3
ATOM      3  C   UNL     1       2.888  -0.015   0.403  1.00  0.00     0.136 C 
BRANCH   3   4
ATOM      4  C   UNL     1       4.226   0.308  -0.234  1.00  0.00    -0.028 A 
ATOM      5  C   UNL     1       4.999  -0.596  -0.825  1.00  0.00     0.016 A 
ATOM      6  C   UNL     1       4.682   1.622  -0.203  1.00  0.00     0.069 A 
ATOM      7  C   UNL     1       6.181  -0.231  -1.370  1.00  0.00     0.065 A 
ATOM      8  S   UNL     1       6.305   1.579  -1.063  1.00  0.00    -0.152 S 
ENDBRANCH   3   4
ENDBRANCH   2   3
BRANCH   2   9
ATOM      9  N   UNL     1       0.474  -0.113  -0.149  1.00  0.00    -0.342 N 
ATOM     10  C   UNL     1       0.009  -0.534   1.160  1.00  0.00     0.120 C 
ATOM     11  C   UNL     1      -0.771  -0.021  -0.939  1.00  0.00     0.128 C 
ATOM     12  C   UNL     1      -1.128   0.423   1.396  1.00  0.00     0.032 C 
ATOM     13  C   UNL     1      -1.755   0.573   0.033  1.00  0.00     0.042 C 
BRANCH  13  14
ATOM     14  C   UNL     1      -3.077  -0.058   0.040  1.00  0.00    -0.025 A 
ATOM     15  C   UNL     1      -4.180   0.791  -0.134  1.00  0.00     0.007 A 
ATOM     16  C   UNL     1      -3.346  -1.379   0.196  1.00  0.00     0.115 A 
ATOM     17  C   UNL     1      -5.471   0.303  -0.146  1.00  0.00     0.020 A 
ATOM     18  N   UNL     1      -4.607  -1.861   0.185  1.00  0.00    -0.264 NA
ATOM     19  C   UNL     1      -5.674  -1.057   0.019  1.00  0.00     0.111 A 
ENDBRANCH  13  14
ENDBRANCH   2   9
TORSDOF 4
