REMARK SMILES Cc1cc(C(=O)NC(C)c2ncccn2)nn1-c1cc(C(F)(F)F)cc(C(F)(F)F)c1
REMARK SMILES IDX 1 1 2 2 3 3 4 4 16 5 17 6 18 7 19 8 31 9 20 10 26 11 25 12
REMARK SMILES IDX 21 13 22 14 23 15 24 16 27 17 28 18 29 19 30 20 5 21 7 22
REMARK SMILES IDX 6 23 8 25 9 26 10 27 11 28 15 29 12 30 14 31 13 32
REMARK H PARENT 7 24
ROOT
ATOM      1  C   UNL     1       2.534   1.716  -2.911  1.00  0.00     0.067 C 
ATOM      2  C   UNL     1       1.393   1.082  -2.197  1.00  0.00     0.042 A 
ATOM      3  C   UNL     1       0.060   1.028  -2.593  1.00  0.00     0.059 A 
ATOM      4  C   UNL     1      -0.650   0.334  -1.611  1.00  0.00     0.150 A 
ATOM      5  N   UNL     1       0.250  -0.006  -0.670  1.00  0.00    -0.162 NA
ATOM      6  N   UNL     1       1.449   0.435  -1.016  1.00  0.00    -0.237 N 
ENDROOT
BRANCH   6   7
ATOM      7  C   UNL     1       2.611   0.214  -0.190  1.00  0.00     0.066 A 
ATOM      8  C   UNL     1       2.990   1.104   0.783  1.00  0.00     0.041 A 
ATOM      9  C   UNL     1       3.335  -0.948  -0.426  1.00  0.00     0.041 A 
ATOM     10  C   UNL     1       4.130   0.803   1.532  1.00  0.00     0.058 A 
ATOM     11  C   UNL     1       4.462  -1.258   0.306  1.00  0.00     0.058 A 
ATOM     12  C   UNL     1       4.836  -0.358   1.283  1.00  0.00     0.026 A 
BRANCH  10  13
ATOM     13  C   UNL     1       4.512   1.779   2.571  1.00  0.00     0.416 C 
ATOM     14  F   UNL     1       3.494   2.041   3.458  1.00  0.00    -0.166 F 
ATOM     15  F   UNL     1       5.603   1.387   3.289  1.00  0.00    -0.166 F 
ATOM     16  F   UNL     1       4.822   2.991   1.957  1.00  0.00    -0.166 F 
ENDBRANCH  10  13
BRANCH  11  17
ATOM     17  C   UNL     1       5.251  -2.488   0.076  1.00  0.00     0.416 C 
ATOM     18  F   UNL     1       6.577  -2.148  -0.131  1.00  0.00    -0.166 F 
ATOM     19  F   UNL     1       4.753  -3.118  -1.068  1.00  0.00    -0.166 F 
ATOM     20  F   UNL     1       5.125  -3.343   1.162  1.00  0.00    -0.166 F 
ENDBRANCH  11  17
ENDBRANCH   6   7
BRANCH   4  21
ATOM     21  C   UNL     1      -2.077   0.060  -1.648  1.00  0.00     0.272 C 
ATOM     22  N   UNL     1      -2.653  -0.662  -0.567  1.00  0.00    -0.341 N 
ATOM     23  O   UNL     1      -2.735   0.476  -2.636  1.00  0.00    -0.267 OA
ATOM     24  H   UNL     1      -2.031  -0.975   0.223  1.00  0.00     0.164 HD
BRANCH  22  25
ATOM     25  C   UNL     1      -4.064  -0.993  -0.496  1.00  0.00     0.147 C 
ATOM     26  C   UNL     1      -4.345  -2.462  -0.535  1.00  0.00     0.039 C 
BRANCH  25  27
ATOM     27  C   UNL     1      -4.755  -0.300   0.637  1.00  0.00     0.150 A 
ATOM     28  N   UNL     1      -4.175  -0.263   1.872  1.00  0.00    -0.239 NA
ATOM     29  N   UNL     1      -5.967   0.298   0.441  1.00  0.00    -0.239 NA
ATOM     30  C   UNL     1      -4.815   0.372   2.895  1.00  0.00     0.115 A 
ATOM     31  C   UNL     1      -6.629   0.934   1.428  1.00  0.00     0.115 A 
ATOM     32  C   UNL     1      -6.053   0.977   2.675  1.00  0.00     0.040 A 
ENDBRANCH  25  27
ENDBRANCH  22  25
ENDBRANCH   4  21
TORSDOF 6
