REMARK SMILES CCCc1nc(C2CCCN2CC(=O)OC)co1
REMARK SMILES IDX 7 1 8 2 9 3 10 4 11 5 6 6 4 7 5 8 18 9 17 10 3 11 2 12 1 13
REMARK SMILES IDX 12 14 13 15 14 16 15 17 16 18
REMARK H PARENT
ROOT
ATOM      1  C   UNL     1      -0.888  -1.548  -0.861  1.00  0.00     0.110 C 
ATOM      2  C   UNL     1      -1.049  -2.872  -0.098  1.00  0.00     0.027 C 
ATOM      3  C   UNL     1      -2.245  -2.640   0.780  1.00  0.00     0.018 C 
ATOM      4  C   UNL     1      -2.838  -1.369   0.170  1.00  0.00     0.086 C 
ATOM      5  N   UNL     1      -1.633  -0.602  -0.066  1.00  0.00    -0.284 NA
ENDROOT
BRANCH   1   6
ATOM      6  C   UNL     1       0.545  -1.270  -0.973  1.00  0.00     0.096 A 
ATOM      7  C   UNL     1       2.626  -0.745  -0.449  1.00  0.00     0.194 A 
ATOM      8  N   UNL     1       1.382  -0.912   0.044  1.00  0.00    -0.217 NA
ATOM      9  O   UNL     1       2.572  -0.993  -1.741  1.00  0.00    -0.449 OA
ATOM     10  C   UNL     1       1.360  -1.305  -2.087  1.00  0.00     0.222 A 
BRANCH   7  11
ATOM     11  C   UNL     1       3.844  -0.349   0.345  1.00  0.00     0.097 C 
BRANCH  11  12
ATOM     12  C   UNL     1       3.863   1.170   0.285  1.00  0.00     0.006 C 
ATOM     13  C   UNL     1       5.002   1.792   1.020  1.00  0.00     0.004 C 
ENDBRANCH  11  12
ENDBRANCH   7  11
ENDBRANCH   1   6
BRANCH   5  14
ATOM     14  C   UNL     1      -1.949   0.622  -0.725  1.00  0.00     0.208 C 
BRANCH  14  15
ATOM     15  C   UNL     1      -2.690   1.522   0.184  1.00  0.00     0.319 C 
ATOM     16  O   UNL     1      -2.959   1.237   1.389  1.00  0.00    -0.251 OA
BRANCH  15  17
ATOM     17  O   UNL     1      -3.144   2.772  -0.250  1.00  0.00    -0.468 OA
ATOM     18  C   UNL     1      -3.851   3.560   0.718  1.00  0.00     0.282 C 
ENDBRANCH  15  17
ENDBRANCH  14  15
ENDBRANCH   5  14
TORSDOF 6
