REMARK SMILES CCOC(=O)C1(Cc2ccc(OC)cc2)CCN(Cc2ccccc2)CC1
REMARK SMILES IDX 6 1 16 2 17 3 18 4 26 5 27 6 4 7 5 8 3 9 2 10 1 11 7 12 8 13
REMARK SMILES IDX 9 14 15 15 10 16 14 17 11 18 12 19 13 20 19 21 20 22 21 23
REMARK SMILES IDX 25 24 22 25 24 26 23 27
REMARK H PARENT
ROOT
ATOM      1  C   UNL     1      -0.301   0.725  -1.006  1.00  0.00     0.074 C 
ATOM      2  C   UNL     1       0.624   1.722  -1.673  1.00  0.00     0.035 C 
ATOM      3  C   UNL     1       1.859   1.826  -0.806  1.00  0.00     0.086 C 
ATOM      4  N   UNL     1       2.553   0.573  -0.678  1.00  0.00    -0.299 NA
ATOM      5  C   UNL     1       1.729  -0.516  -0.249  1.00  0.00     0.086 C 
ATOM      6  C   UNL     1       0.411  -0.594  -0.970  1.00  0.00     0.035 C 
ENDROOT
BRANCH   1   7
ATOM      7  C   UNL     1      -0.618   1.266   0.321  1.00  0.00     0.312 C 
ATOM      8  O   UNL     1      -0.393   0.687   1.412  1.00  0.00    -0.252 OA
BRANCH   7   9
ATOM      9  O   UNL     1      -1.216   2.518   0.389  1.00  0.00    -0.466 OA
BRANCH   9  10
ATOM     10  C   UNL     1      -1.553   3.105   1.632  1.00  0.00     0.229 C 
ATOM     11  C   UNL     1      -2.178   4.449   1.335  1.00  0.00     0.049 C 
ENDBRANCH   9  10
ENDBRANCH   7   9
ENDBRANCH   1   7
BRANCH   1  12
ATOM     12  C   UNL     1      -1.578   0.594  -1.801  1.00  0.00     0.054 C 
BRANCH  12  13
ATOM     13  C   UNL     1      -2.551  -0.306  -1.157  1.00  0.00    -0.047 A 
ATOM     14  C   UNL     1      -2.522  -1.654  -1.463  1.00  0.00     0.007 A 
ATOM     15  C   UNL     1      -3.509   0.102  -0.255  1.00  0.00     0.007 A 
ATOM     16  C   UNL     1      -3.402  -2.555  -0.899  1.00  0.00     0.046 A 
ATOM     17  C   UNL     1      -4.411  -0.766   0.335  1.00  0.00     0.046 A 
ATOM     18  C   UNL     1      -4.354  -2.099   0.008  1.00  0.00     0.118 A 
BRANCH  18  19
ATOM     19  O   UNL     1      -5.204  -3.061   0.534  1.00  0.00    -0.497 OA
ATOM     20  C   UNL     1      -6.220  -2.729   1.471  1.00  0.00     0.278 C 
ENDBRANCH  18  19
ENDBRANCH  12  13
ENDBRANCH   1  12
BRANCH   4  21
ATOM     21  C   UNL     1       3.686   0.776   0.200  1.00  0.00     0.120 C 
BRANCH  21  22
ATOM     22  C   UNL     1       4.417  -0.490   0.324  1.00  0.00    -0.034 A 
ATOM     23  C   UNL     1       4.214  -1.451   1.264  1.00  0.00     0.005 A 
ATOM     24  C   UNL     1       5.421  -0.737  -0.620  1.00  0.00     0.005 A 
ATOM     25  C   UNL     1       4.952  -2.613   1.299  1.00  0.00     0.000 A 
ATOM     26  C   UNL     1       6.159  -1.897  -0.588  1.00  0.00     0.000 A 
ATOM     27  C   UNL     1       5.937  -2.863   0.378  1.00  0.00     0.000 A 
ENDBRANCH  21  22
ENDBRANCH   4  21
TORSDOF 8
