REMARK SMILES Cc1ccc([N+](=O)[O-])cc1CN1CC(C)C(NC(=O)Cc2ccc(F)cc2)C1
REMARK SMILES IDX 12 1 13 2 14 3 15 4 16 5 28 6 11 7 10 8 2 9 3 10 4 11 9 12
REMARK SMILES IDX 5 13 1 14 6 15 7 16 8 17 17 18 18 19 19 21 20 22 21 23 22 24
REMARK SMILES IDX 27 25 23 26 26 27 24 28 25 29
REMARK H PARENT 17 20
ROOT
ATOM      1  N   UNL     1      -1.190  -1.044  -0.539  1.00  0.00    -0.297 NA
ATOM      2  C   UNL     1      -1.502  -1.794   0.606  1.00  0.00     0.090 C 
ATOM      3  C   UNL     1      -0.176  -1.773   1.435  1.00  0.00     0.024 C 
ATOM      4  C   UNL     1       0.662  -2.868   0.794  1.00  0.00     0.011 C 
ATOM      5  C   UNL     1       0.360  -0.461   0.995  1.00  0.00     0.100 C 
ATOM      6  C   UNL     1       0.164  -0.613  -0.543  1.00  0.00     0.110 C 
ENDROOT
BRANCH   1   7
ATOM      7  C   UNL     1      -2.084  -0.698  -1.517  1.00  0.00     0.120 C 
BRANCH   7   8
ATOM      8  C   UNL     1      -3.321  -0.032  -0.962  1.00  0.00    -0.024 A 
ATOM      9  C   UNL     1      -4.367  -0.775  -0.442  1.00  0.00    -0.046 A 
ATOM     10  C   UNL     1      -5.452  -0.123   0.081  1.00  0.00     0.011 A 
ATOM     11  C   UNL     1      -5.573   1.257   0.130  1.00  0.00     0.086 A 
ATOM     12  C   UNL     1      -3.422   1.345  -0.926  1.00  0.00     0.091 A 
ATOM     13  C   UNL     1      -4.531   1.991  -0.387  1.00  0.00     0.269 A 
ATOM     14  C   UNL     1      -4.398  -2.259  -0.441  1.00  0.00     0.044 C 
BRANCH  13  15
ATOM     15  N   UNL     1      -4.625   3.421  -0.359  1.00  0.00     0.062 N 
ATOM     16  O   UNL     1      -5.611   3.993   0.134  1.00  0.00    -0.258 OA
ATOM     17  O   UNL     1      -3.624   4.221  -0.874  1.00  0.00    -0.258 OA
ENDBRANCH  13  15
ENDBRANCH   7   8
ENDBRANCH   1   7
BRANCH   5  18
ATOM     18  N   UNL     1       1.700  -0.189   1.358  1.00  0.00    -0.351 N 
ATOM     19  C   UNL     1       2.311   1.084   1.428  1.00  0.00     0.224 C 
ATOM     20  H   UNL     1       2.319  -1.018   1.612  1.00  0.00     0.163 HD
ATOM     21  O   UNL     1       1.698   2.152   1.143  1.00  0.00    -0.275 OA
BRANCH  19  22
ATOM     22  C   UNL     1       3.741   1.135   1.854  1.00  0.00     0.135 C 
BRANCH  22  23
ATOM     23  C   UNL     1       4.672   1.259   0.716  1.00  0.00    -0.038 A 
ATOM     24  C   UNL     1       5.315   0.063   0.341  1.00  0.00     0.007 A 
ATOM     25  C   UNL     1       4.924   2.404   0.010  1.00  0.00     0.007 A 
ATOM     26  C   UNL     1       6.194   0.022  -0.725  1.00  0.00     0.039 A 
ATOM     27  C   UNL     1       5.789   2.350  -1.033  1.00  0.00     0.039 A 
ATOM     28  C   UNL     1       6.448   1.173  -1.435  1.00  0.00     0.123 A 
ATOM     29  F   UNL     1       7.300   1.172  -2.484  1.00  0.00    -0.207 F 
ENDBRANCH  22  23
ENDBRANCH  19  22
ENDBRANCH   5  18
TORSDOF 6
