REMARK SMILES Cc1cccc(=Nc2nc(-c3cn(Cc4ccc(N)cc4)c4ccccc34)cs2)[nH]1
REMARK SMILES IDX 11 1 12 2 13 3 22 4 23 5 24 6 25 7 26 8 27 9 10 10 8 11 9 12
REMARK SMILES IDX 29 13 28 14 7 15 6 16 2 17 3 18 30 19 4 20 5 21 1 22 14 24
REMARK SMILES IDX 15 25 16 26 21 27 17 28 20 29 18 30 19 31
REMARK H PARENT 30 23 19 32 19 33
ROOT
ATOM      1  C   UNL     1      -0.510  -0.352   0.467  1.00  0.00     0.027 A 
ATOM      2  C   UNL     1      -1.604  -1.122   0.792  1.00  0.00     0.097 A 
ATOM      3  N   UNL     1      -2.611  -0.337   1.232  1.00  0.00    -0.342 N 
ATOM      4  C   UNL     1      -2.214   0.942   1.210  1.00  0.00     0.049 A 
ATOM      5  C   UNL     1      -2.811   2.157   1.542  1.00  0.00     0.027 A 
ATOM      6  C   UNL     1      -2.095   3.335   1.394  1.00  0.00     0.002 A 
ATOM      7  C   UNL     1      -0.796   3.348   0.923  1.00  0.00     0.001 A 
ATOM      8  C   UNL     1      -0.196   2.130   0.589  1.00  0.00     0.011 A 
ATOM      9  C   UNL     1      -0.908   0.952   0.736  1.00  0.00     0.009 A 
ENDROOT
BRANCH   1  10
ATOM     10  C   UNL     1       0.801  -0.804  -0.052  1.00  0.00     0.086 A 
ATOM     11  C   UNL     1       2.861  -0.249  -0.749  1.00  0.00     0.211 A 
ATOM     12  N   UNL     1       1.807  -0.015  -0.343  1.00  0.00    -0.218 NA
ATOM     13  S   UNL     1       2.776  -2.142  -0.898  1.00  0.00    -0.103 S 
ATOM     14  C   UNL     1       1.054  -2.139  -0.271  1.00  0.00     0.097 A 
BRANCH  11  15
ATOM     15  N   UNL     1       4.078   0.403  -1.129  1.00  0.00    -0.202 NA
BRANCH  15  16
ATOM     16  C   UNL     1       5.207   0.133  -0.595  1.00  0.00     0.133 A 
ATOM     17  C   UNL     1       7.522   0.604  -0.541  1.00  0.00     0.013 A 
ATOM     18  C   UNL     1       7.776  -0.318   0.451  1.00  0.00     0.021 A 
ATOM     19  N   UNL     1       6.281   0.811  -1.035  1.00  0.00    -0.344 N 
ATOM     20  C   UNL     1       6.671  -1.029   0.917  1.00  0.00     0.006 A 
ATOM     21  C   UNL     1       5.398  -0.806   0.398  1.00  0.00     0.047 A 
ATOM     22  C   UNL     1       8.662   1.407  -1.091  1.00  0.00     0.064 C 
ATOM     23  H   UNL     1       6.170   1.541  -1.800  1.00  0.00     0.168 HD
ENDBRANCH  15  16
ENDBRANCH  11  15
ENDBRANCH   1  10
BRANCH   3  24
ATOM     24  C   UNL     1      -3.895  -0.820   1.653  1.00  0.00     0.157 C 
BRANCH  24  25
ATOM     25  C   UNL     1      -4.875  -0.893   0.545  1.00  0.00    -0.028 A 
ATOM     26  C   UNL     1      -5.712   0.148   0.197  1.00  0.00     0.008 A 
ATOM     27  C   UNL     1      -4.967  -2.058  -0.190  1.00  0.00     0.008 A 
ATOM     28  C   UNL     1      -6.616   0.024  -0.856  1.00  0.00     0.026 A 
ATOM     29  C   UNL     1      -5.855  -2.207  -1.240  1.00  0.00     0.026 A 
ATOM     30  C   UNL     1      -6.693  -1.167  -1.588  1.00  0.00     0.031 A 
BRANCH  30  31
ATOM     31  N   UNL     1      -7.616  -1.308  -2.672  1.00  0.00    -0.399 N 
ATOM     32  H   UNL     1      -7.697  -0.599  -3.424  1.00  0.00     0.156 HD
ATOM     33  H   UNL     1      -8.228  -2.146  -2.713  1.00  0.00     0.156 HD
ENDBRANCH  30  31
ENDBRANCH  24  25
ENDBRANCH   3  24
TORSDOF 6
