REMARK SMILES O=C1c2cccn2C(C2CCCCC2)CN1Cc1ccccc1
REMARK SMILES IDX 1 1 2 2 3 3 4 4 5 5 6 6 7 7 8 8 15 9 16 10 17 11 18 12 19 13
REMARK SMILES IDX 23 14 20 15 22 16 21 17 9 18 10 19 14 20 11 21 13 22 12 23
REMARK H PARENT
ROOT
ATOM      1  O   UNL     1      -1.785  -1.739   2.120  1.00  0.00    -0.267 OA
ATOM      2  C   UNL     1      -0.983  -1.490   1.191  1.00  0.00     0.270 C 
ATOM      3  C   UNL     1      -0.062  -2.508   0.754  1.00  0.00     0.107 A 
ATOM      4  C   UNL     1       0.104  -3.816   1.218  1.00  0.00     0.033 A 
ATOM      5  C   UNL     1       1.118  -4.328   0.443  1.00  0.00     0.020 A 
ATOM      6  C   UNL     1       1.543  -3.377  -0.446  1.00  0.00     0.087 A 
ATOM      7  N   UNL     1       0.804  -2.261  -0.240  1.00  0.00    -0.338 N 
ATOM      8  C   UNL     1       0.895  -1.000  -0.940  1.00  0.00     0.110 C 
ATOM      9  C   UNL     1      -0.209  -0.064  -0.677  1.00  0.00     0.146 C 
ATOM     10  N   UNL     1      -0.942  -0.227   0.538  1.00  0.00    -0.331 N 
ENDROOT
BRANCH  10  11
ATOM     11  C   UNL     1      -1.642   0.910   1.097  1.00  0.00     0.155 C 
BRANCH  11  12
ATOM     12  C   UNL     1      -3.024   1.069   0.633  1.00  0.00    -0.029 A 
ATOM     13  C   UNL     1      -3.257   1.833  -0.502  1.00  0.00     0.005 A 
ATOM     14  C   UNL     1      -4.128   0.511   1.246  1.00  0.00     0.005 A 
ATOM     15  C   UNL     1      -4.519   2.039  -1.013  1.00  0.00     0.000 A 
ATOM     16  C   UNL     1      -5.419   0.692   0.767  1.00  0.00     0.000 A 
ATOM     17  C   UNL     1      -5.604   1.466  -0.376  1.00  0.00     0.000 A 
ENDBRANCH  11  12
ENDBRANCH  10  11
BRANCH   8  18
ATOM     18  C   UNL     1       2.247  -0.347  -0.675  1.00  0.00     0.014 C 
ATOM     19  C   UNL     1       2.442  -0.087   0.781  1.00  0.00     0.006 C 
ATOM     20  C   UNL     1       2.471   0.796  -1.574  1.00  0.00     0.006 C 
ATOM     21  C   UNL     1       3.708   0.686   0.941  1.00  0.00     0.000 C 
ATOM     22  C   UNL     1       2.832   2.096  -0.957  1.00  0.00     0.000 C 
ATOM     23  C   UNL     1       3.461   2.061   0.392  1.00  0.00     0.000 C 
ENDBRANCH   8  18
TORSDOF 3
