REMARK SMILES c1cc2nnc(C3CCOCC3)n2[nH]c1=NCCN1CCOCC1
REMARK SMILES IDX 16 1 15 2 1 3 2 4 3 5 14 6 4 7 13 8 5 9 6 10 7 12 8 13 12 14
REMARK SMILES IDX 9 15 11 16 10 17 17 18 18 19 19 20 20 21 24 22 21 23 23 24
REMARK SMILES IDX 22 25
REMARK H PARENT 14 11
ROOT
ATOM      1  N   UNL     1       1.064   0.021  -0.930  1.00  0.00    -0.266 NA
ENDROOT
BRANCH   1   2
ATOM      2  C   UNL     1       0.147  -0.310  -0.088  1.00  0.00     0.140 A 
ATOM      3  C   UNL     1       0.430  -0.687   1.205  1.00  0.00     0.052 A 
ATOM      4  C   UNL     1      -0.581  -1.004   2.089  1.00  0.00     0.055 A 
ATOM      5  C   UNL     1      -1.897  -0.942   1.678  1.00  0.00     0.175 A 
ATOM      6  N   UNL     1      -1.157  -0.268  -0.439  1.00  0.00    -0.275 N 
ATOM      7  N   UNL     1      -3.033  -1.185   2.344  1.00  0.00    -0.129 NA
ATOM      8  N   UNL     1      -2.138  -0.570   0.409  1.00  0.00    -0.218 N 
ATOM      9  N   UNL     1      -4.020  -0.967   1.488  1.00  0.00    -0.133 NA
ATOM     10  C   UNL     1      -3.485  -0.587   0.290  1.00  0.00     0.156 A 
ATOM     11  H   UNL     1      -1.400   0.014  -1.417  1.00  0.00     0.190 HD
BRANCH  10  12
ATOM     12  C   UNL     1      -4.240  -0.236  -0.943  1.00  0.00     0.064 C 
ATOM     13  C   UNL     1      -4.716   1.215  -0.903  1.00  0.00     0.040 C 
ATOM     14  C   UNL     1      -5.452  -1.110  -1.128  1.00  0.00     0.040 C 
ATOM     15  C   UNL     1      -5.811   1.439   0.099  1.00  0.00     0.161 C 
ATOM     16  C   UNL     1      -6.672  -0.573  -0.454  1.00  0.00     0.161 C 
ATOM     17  O   UNL     1      -6.335   0.276   0.604  1.00  0.00    -0.381 OA
ENDBRANCH  10  12
ENDBRANCH   1   2
BRANCH   1  18
ATOM     18  C   UNL     1       2.445  -0.003  -0.499  1.00  0.00     0.160 C 
BRANCH  18  19
ATOM     19  C   UNL     1       3.387   0.619  -1.506  1.00  0.00     0.108 C 
BRANCH  19  20
ATOM     20  N   UNL     1       4.751   0.613  -1.076  1.00  0.00    -0.297 NA
ATOM     21  C   UNL     1       5.357  -0.679  -1.013  1.00  0.00     0.113 C 
ATOM     22  C   UNL     1       4.972   1.407   0.114  1.00  0.00     0.113 C 
ATOM     23  C   UNL     1       6.226  -0.962   0.134  1.00  0.00     0.175 C 
ATOM     24  C   UNL     1       6.462   1.343   0.353  1.00  0.00     0.175 C 
ATOM     25  O   UNL     1       6.888   0.088   0.709  1.00  0.00    -0.379 OA
ENDBRANCH  19  20
ENDBRANCH  18  19
ENDBRANCH   1  18
TORSDOF 5
