REMARK SMILES CCN(CC)CC(CCCCCN1CC(Cc2ccccc2)N(CCc2ccc(OC)cc2)C1=S)NC(=O)C=Cc1ccc(O)cc1
REMARK SMILES IDX 9 1 8 2 7 3 6 4 3 5 2 6 1 7 4 8 5 9 36 10 37 11 38 13 39 14
REMARK SMILES IDX 40 15 41 16 42 17 47 18 43 19 46 20 44 21 45 22 10 24 11 25
REMARK SMILES IDX 12 26 13 27 14 28 34 29 15 30 23 31 35 32 16 33 17 34 18 35
REMARK SMILES IDX 22 36 19 37 21 38 20 39 24 40 25 41 26 42 27 43 33 44 28 45
REMARK SMILES IDX 32 46 29 47 30 48 31 49
REMARK H PARENT 36 12 45 23
ROOT
ATOM      1  C   UNL     1      -1.550  -0.521   1.137  1.00  0.00     0.002 C 
ENDROOT
BRANCH   1   2
ATOM      2  C   UNL     1      -2.790  -0.216   1.786  1.00  0.00     0.026 C 
BRANCH   2   3
ATOM      3  C   UNL     1      -4.158  -0.676   1.337  1.00  0.00     0.096 C 
BRANCH   3   4
ATOM      4  C   UNL     1      -4.539  -0.337  -0.040  1.00  0.00     0.109 C 
BRANCH   4   5
ATOM      5  N   UNL     1      -5.821  -0.726  -0.542  1.00  0.00    -0.302 NA
BRANCH   5   6
ATOM      6  C   UNL     1      -5.731  -0.315  -1.980  1.00  0.00     0.081 C 
ATOM      7  C   UNL     1      -5.462   1.124  -2.077  1.00  0.00     0.021 C 
ENDBRANCH   5   6
BRANCH   5   8
ATOM      8  C   UNL     1      -7.011  -0.144  -0.071  1.00  0.00     0.081 C 
ATOM      9  C   UNL     1      -7.632  -0.712   1.158  1.00  0.00     0.021 C 
ENDBRANCH   5   8
ENDBRANCH   4   5
ENDBRANCH   3   4
BRANCH   3  10
ATOM     10  N   UNL     1      -5.061   0.077   2.283  1.00  0.00    -0.349 N 
ATOM     11  C   UNL     1      -5.493  -0.395   3.506  1.00  0.00     0.244 C 
ATOM     12  H   UNL     1      -5.371   0.966   1.907  1.00  0.00     0.164 HD
ATOM     13  O   UNL     1      -5.094  -1.610   3.775  1.00  0.00    -0.270 OA
BRANCH  11  14
ATOM     14  C   UNL     1      -6.285   0.243   4.509  1.00  0.00     0.072 C 
BRANCH  14  15
ATOM     15  C   UNL     1      -6.778   1.404   4.744  1.00  0.00     0.014 C 
BRANCH  15  16
ATOM     16  C   UNL     1      -6.783   2.690   4.132  1.00  0.00    -0.025 A 
ATOM     17  C   UNL     1      -5.886   3.240   3.263  1.00  0.00     0.012 A 
ATOM     18  C   UNL     1      -7.922   3.504   4.373  1.00  0.00     0.012 A 
ATOM     19  C   UNL     1      -6.015   4.462   2.642  1.00  0.00     0.047 A 
ATOM     20  C   UNL     1      -8.063   4.734   3.755  1.00  0.00     0.047 A 
ATOM     21  C   UNL     1      -7.145   5.242   2.894  1.00  0.00     0.115 A 
BRANCH  21  22
ATOM     22  O   UNL     1      -7.211   6.450   2.240  1.00  0.00    -0.508 OA
ATOM     23  H   UNL     1      -6.380   6.830   1.786  1.00  0.00     0.293 HD
ENDBRANCH  21  22
ENDBRANCH  15  16
ENDBRANCH  14  15
ENDBRANCH  11  14
ENDBRANCH   3  10
ENDBRANCH   2   3
ENDBRANCH   1   2
BRANCH   1  24
ATOM     24  C   UNL     1      -1.291   0.113  -0.197  1.00  0.00     0.002 C 
BRANCH  24  25
ATOM     25  C   UNL     1       0.089  -0.165  -0.759  1.00  0.00     0.021 C 
BRANCH  25  26
ATOM     26  C   UNL     1       0.468  -1.579  -0.962  1.00  0.00     0.119 C 
BRANCH  26  27
ATOM     27  N   UNL     1       1.861  -1.615  -1.480  1.00  0.00    -0.347 N 
ATOM     28  C   UNL     1       2.654  -2.775  -1.814  1.00  0.00     0.144 C 
ATOM     29  C   UNL     1       2.685  -0.491  -1.739  1.00  0.00     0.171 C 
ATOM     30  C   UNL     1       4.080  -2.296  -1.896  1.00  0.00     0.108 C 
ATOM     31  N   UNL     1       4.060  -0.914  -1.575  1.00  0.00    -0.344 N 
ATOM     32  S   UNL     1       2.297   1.042  -2.148  1.00  0.00    -0.041 S 
BRANCH  30  33
ATOM     33  C   UNL     1       4.940  -3.153  -1.033  1.00  0.00     0.062 C 
BRANCH  33  34
ATOM     34  C   UNL     1       4.957  -4.560  -1.426  1.00  0.00    -0.046 A 
ATOM     35  C   UNL     1       4.153  -5.558  -0.928  1.00  0.00     0.004 A 
ATOM     36  C   UNL     1       5.866  -4.930  -2.419  1.00  0.00     0.004 A 
ATOM     37  C   UNL     1       4.268  -6.847  -1.411  1.00  0.00     0.000 A 
ATOM     38  C   UNL     1       5.988  -6.198  -2.902  1.00  0.00     0.000 A 
ATOM     39  C   UNL     1       5.166  -7.208  -2.390  1.00  0.00     0.000 A 
ENDBRANCH  33  34
ENDBRANCH  30  33
BRANCH  31  40
ATOM     40  C   UNL     1       5.094   0.026  -1.164  1.00  0.00     0.124 C 
BRANCH  40  41
ATOM     41  C   UNL     1       6.087   0.293  -2.268  1.00  0.00     0.057 C 
BRANCH  41  42
ATOM     42  C   UNL     1       7.078   1.311  -1.832  1.00  0.00    -0.046 A 
ATOM     43  C   UNL     1       6.744   2.634  -2.118  1.00  0.00     0.007 A 
ATOM     44  C   UNL     1       8.258   1.022  -1.196  1.00  0.00     0.007 A 
ATOM     45  C   UNL     1       7.553   3.694  -1.789  1.00  0.00     0.046 A 
ATOM     46  C   UNL     1       9.083   2.099  -0.861  1.00  0.00     0.046 A 
ATOM     47  C   UNL     1       8.750   3.406  -1.145  1.00  0.00     0.118 A 
BRANCH  47  48
ATOM     48  O   UNL     1       9.546   4.494  -0.824  1.00  0.00    -0.497 OA
ATOM     49  C   UNL     1      10.783   4.322  -0.164  1.00  0.00     0.278 C 
ENDBRANCH  47  48
ENDBRANCH  41  42
ENDBRANCH  40  41
ENDBRANCH  31  40
ENDBRANCH  26  27
ENDBRANCH  25  26
ENDBRANCH  24  25
ENDBRANCH   1  24
TORSDOF 21
