REMARK SMILES CCn1c(=O)c2sccc2n2c(CCCC(=O)N3CCN(c4cccc(C(F)(F)F)c4)CC3)nnc12
REMARK SMILES IDX 14 1 13 2 12 3 3 4 4 5 36 6 6 7 35 8 11 9 7 10 10 11 34 12
REMARK SMILES IDX 8 13 9 14 5 15 2 16 1 17 15 18 16 19 18 20 19 21 33 22 20 23
REMARK SMILES IDX 32 24 21 25 17 26 22 27 23 28 31 29 24 30 26 31 25 32 27 33
REMARK SMILES IDX 28 34 29 35 30 36
REMARK H PARENT
ROOT
ATOM      1  C   UNL     1      -1.299   0.638   1.180  1.00  0.00     0.018 C 
ENDROOT
BRANCH   1   2
ATOM      2  C   UNL     1      -2.350   0.464   0.107  1.00  0.00     0.078 C 
BRANCH   2   3
ATOM      3  C   UNL     1      -3.653   0.072   0.754  1.00  0.00     0.139 A 
ATOM      4  N   UNL     1      -6.976  -0.802   0.956  1.00  0.00    -0.276 N 
ATOM      5  C   UNL     1      -7.435  -0.794  -0.304  1.00  0.00     0.272 A 
ATOM      6  C   UNL     1      -5.681  -0.486   1.118  1.00  0.00     0.238 A 
ATOM      7  C   UNL     1      -6.579  -0.472  -1.332  1.00  0.00     0.117 A 
ATOM      8  N   UNL     1      -5.019  -0.433   2.310  1.00  0.00    -0.111 NA
ATOM      9  N   UNL     1      -4.832  -0.171   0.144  1.00  0.00    -0.263 N 
ATOM     10  S   UNL     1      -6.889  -0.371  -3.122  1.00  0.00    -0.136 S 
ATOM     11  C   UNL     1      -5.228  -0.141  -1.175  1.00  0.00     0.074 A 
ATOM     12  N   UNL     1      -3.772  -0.091   2.089  1.00  0.00    -0.133 NA
ATOM     13  C   UNL     1      -5.136   0.116  -3.493  1.00  0.00     0.068 A 
ATOM     14  C   UNL     1      -4.523   0.149  -2.252  1.00  0.00     0.039 A 
ATOM     15  O   UNL     1      -8.612  -1.068  -0.589  1.00  0.00    -0.268 OA
BRANCH   4  16
ATOM     16  C   UNL     1      -7.842  -1.132   2.040  1.00  0.00     0.126 C 
ATOM     17  C   UNL     1      -8.537   0.089   2.611  1.00  0.00     0.028 C 
ENDBRANCH   4  16
ENDBRANCH   2   3
ENDBRANCH   1   2
BRANCH   1  18
ATOM     18  C   UNL     1       0.045   1.036   0.657  1.00  0.00     0.100 C 
BRANCH  18  19
ATOM     19  C   UNL     1       0.604   0.017  -0.244  1.00  0.00     0.222 C 
ATOM     20  N   UNL     1       1.836   0.336  -0.907  1.00  0.00    -0.339 N 
ATOM     21  C   UNL     1       2.399  -0.647  -1.794  1.00  0.00     0.141 C 
ATOM     22  C   UNL     1       2.523   1.598  -0.716  1.00  0.00     0.141 C 
ATOM     23  C   UNL     1       3.809  -0.232  -2.149  1.00  0.00     0.138 C 
ATOM     24  C   UNL     1       3.894   1.253  -0.176  1.00  0.00     0.138 C 
ATOM     25  N   UNL     1       4.542   0.256  -1.008  1.00  0.00    -0.368 N 
ATOM     26  O   UNL     1       0.117  -1.102  -0.490  1.00  0.00    -0.275 OA
BRANCH  25  27
ATOM     27  C   UNL     1       5.842  -0.168  -0.648  1.00  0.00     0.037 A 
ATOM     28  C   UNL     1       6.586  -1.084  -1.352  1.00  0.00     0.026 A 
ATOM     29  C   UNL     1       6.456   0.354   0.498  1.00  0.00     0.039 A 
ATOM     30  C   UNL     1       7.856  -1.483  -0.977  1.00  0.00     0.003 A 
ATOM     31  C   UNL     1       7.722  -0.035   0.884  1.00  0.00     0.058 A 
ATOM     32  C   UNL     1       8.442  -0.957   0.155  1.00  0.00     0.013 A 
BRANCH  31  33
ATOM     33  C   UNL     1       8.267   0.591   2.122  1.00  0.00     0.416 C 
ATOM     34  F   UNL     1       8.428   1.938   1.878  1.00  0.00    -0.166 F 
ATOM     35  F   UNL     1       9.476   0.033   2.489  1.00  0.00    -0.166 F 
ATOM     36  F   UNL     1       7.345   0.382   3.149  1.00  0.00    -0.166 F 
ENDBRANCH  31  33
ENDBRANCH  25  27
ENDBRANCH  18  19
ENDBRANCH   1  18
TORSDOF 7
