REMARK SMILES O=C(O)C(Cc1ccc(OCCCC2CS(=O)(=O)c3cc(C(=O)O)ccc32)cc1)=NC(=O)C1OC1C(=O)O
REMARK SMILES IDX 6 1 7 2 8 3 9 4 28 5 29 6 5 7 4 8 2 9 1 10 3 11 30 13 31 14
REMARK SMILES IDX 32 15 33 16 34 17 35 18 36 19 37 20 38 21 10 23 11 24 12 25
REMARK SMILES IDX 13 26 14 27 15 28 27 29 16 30 26 31 19 32 25 33 20 34 21 35
REMARK SMILES IDX 17 36 18 37 22 38 23 39 24 40
REMARK H PARENT 3 12 38 22 24 41
ROOT
ATOM      1  C   UNL     1      -3.390   0.979  -0.235  1.00  0.00    -0.042 A 
ATOM      2  C   UNL     1      -2.444   1.112  -1.230  1.00  0.00     0.008 A 
ATOM      3  C   UNL     1      -1.088   1.009  -1.008  1.00  0.00     0.047 A 
ATOM      4  C   UNL     1      -0.617   0.763   0.249  1.00  0.00     0.119 A 
ATOM      5  C   UNL     1      -1.521   0.622   1.276  1.00  0.00     0.047 A 
ATOM      6  C   UNL     1      -2.890   0.727   1.044  1.00  0.00     0.008 A 
ENDROOT
BRANCH   1   7
ATOM      7  C   UNL     1      -4.849   1.084  -0.468  1.00  0.00     0.099 C 
BRANCH   7   8
ATOM      8  C   UNL     1      -5.524  -0.203  -0.695  1.00  0.00     0.133 C 
BRANCH   8   9
ATOM      9  C   UNL     1      -5.197  -1.115  -1.782  1.00  0.00     0.350 C 
ATOM     10  O   UNL     1      -4.305  -0.897  -2.636  1.00  0.00    -0.245 OA
BRANCH   9  11
ATOM     11  O   UNL     1      -5.895  -2.321  -1.923  1.00  0.00    -0.477 OA
ATOM     12  H   UNL     1      -5.474  -3.082  -2.424  1.00  0.00     0.297 HD
ENDBRANCH   9  11
ENDBRANCH   8   9
BRANCH   8  13
ATOM     13  N   UNL     1      -6.483  -0.554   0.131  1.00  0.00    -0.208 NA
BRANCH  13  14
ATOM     14  C   UNL     1      -6.904   0.221   1.220  1.00  0.00     0.278 C 
ATOM     15  O   UNL     1      -6.199   0.137   2.285  1.00  0.00    -0.269 OA
BRANCH  14  16
ATOM     16  C   UNL     1      -8.063   1.119   1.275  1.00  0.00     0.251 C 
ATOM     17  O   UNL     1      -8.335   2.001   0.240  1.00  0.00    -0.347 OA
ATOM     18  C   UNL     1      -9.279   1.019   0.522  1.00  0.00     0.267 C 
BRANCH  18  19
ATOM     19  C   UNL     1      -9.562   0.062  -0.547  1.00  0.00     0.336 C 
ATOM     20  O   UNL     1      -8.702  -0.528  -1.252  1.00  0.00    -0.249 OA
BRANCH  19  21
ATOM     21  O   UNL     1     -10.899  -0.273  -0.869  1.00  0.00    -0.479 OA
ATOM     22  H   UNL     1     -11.125  -1.176  -1.301  1.00  0.00     0.296 HD
ENDBRANCH  19  21
ENDBRANCH  18  19
ENDBRANCH  14  16
ENDBRANCH  13  14
ENDBRANCH   8  13
ENDBRANCH   7   8
ENDBRANCH   1   7
BRANCH   4  23
ATOM     23  O   UNL     1       0.752   0.653   0.501  1.00  0.00    -0.494 OA
BRANCH  23  24
ATOM     24  C   UNL     1       1.714   0.787  -0.503  1.00  0.00     0.229 C 
BRANCH  24  25
ATOM     25  C   UNL     1       3.092   0.610   0.127  1.00  0.00     0.042 C 
BRANCH  25  26
ATOM     26  C   UNL     1       3.155  -0.750   0.737  1.00  0.00     0.013 C 
BRANCH  26  27
ATOM     27  C   UNL     1       4.483  -1.051   1.398  1.00  0.00     0.036 C 
ATOM     28  C   UNL     1       4.746  -0.091   2.465  1.00  0.00     0.150 C 
ATOM     29  C   UNL     1       5.577  -1.153   0.439  1.00  0.00    -0.025 A 
ATOM     30  S   UNL     1       6.146   0.848   1.941  1.00  0.00     0.179 S 
ATOM     31  C   UNL     1       5.739  -2.084  -0.594  1.00  0.00     0.006 A 
ATOM     32  C   UNL     1       6.541  -0.221   0.588  1.00  0.00     0.071 A 
ATOM     33  C   UNL     1       6.860  -1.992  -1.385  1.00  0.00     0.016 A 
ATOM     34  C   UNL     1       7.679  -0.127  -0.216  1.00  0.00     0.036 A 
ATOM     35  C   UNL     1       7.840  -1.039  -1.228  1.00  0.00     0.061 A 
ATOM     36  O   UNL     1       5.806   2.228   1.490  1.00  0.00    -0.224 OA
ATOM     37  O   UNL     1       7.258   0.846   2.949  1.00  0.00    -0.224 OA
BRANCH  35  38
ATOM     38  C   UNL     1       8.991  -1.028  -2.123  1.00  0.00     0.335 C 
ATOM     39  O   UNL     1       9.155  -1.856  -3.055  1.00  0.00    -0.246 OA
BRANCH  38  40
ATOM     40  O   UNL     1       9.965  -0.034  -1.922  1.00  0.00    -0.478 OA
ATOM     41  H   UNL     1      10.458   0.362  -2.738  1.00  0.00     0.297 HD
ENDBRANCH  38  40
ENDBRANCH  35  38
ENDBRANCH  26  27
ENDBRANCH  25  26
ENDBRANCH  24  25
ENDBRANCH  23  24
ENDBRANCH   4  23
TORSDOF 16
