REMARK SMILES COC1=CC(=O)C2(OCCO2)C(=O)C=C1
REMARK SMILES IDX 5 1 6 2 4 3 3 4 2 6 1 7 7 8 8 9 11 10 9 11 10 12 12 13 13 14
REMARK SMILES IDX 14 15 15 16
REMARK H PARENT
REMARK Flexibility Score:   19.900
ROOT
ATOM      1  C   UNL     1      -0.482   0.357   0.954  1.00  0.00     0.227 C 
ATOM      2  O   UNL     1      -1.023   0.798   2.024  1.00  0.00    -0.288 OA
ENDROOT
BRANCH   1   3
ATOM      3  C   UNL     1       0.950   0.129   1.113  1.00  0.00     0.100 C 
BRANCH   3   4
ATOM      4  C   UNL     1       1.815  -0.220   0.176  1.00  0.00     0.122 CG0
ATOM      5  G   UNL     1       1.608  -0.474  -1.248  1.00  0.00     0.000 G0
BRANCH   4   6
ATOM      6  O   UNL     1       3.110  -0.355   0.665  1.00  0.00    -0.497 OA
ATOM      7  C   UNL     1       4.204   0.184  -0.052  1.00  0.00     0.278 C 
ENDBRANCH   4   6
ENDBRANCH   3   4
ENDBRANCH   1   3
BRANCH   1   8
ATOM      8  C   UNL     1      -1.413   0.182  -0.176  1.00  0.00     0.298 C 
ATOM      9  O   UNL     1      -2.425   1.125  -0.025  1.00  0.00    -0.335 OA
ATOM     10  O   UNL     1      -2.091  -1.033  -0.139  1.00  0.00    -0.335 OA
ATOM     11  C   UNL     1      -3.338   0.564   0.866  1.00  0.00     0.193 C 
ATOM     12  C   UNL     1      -2.975  -0.895   0.914  1.00  0.00     0.193 C 
BRANCH   8  13
ATOM     13  C   UNL     1      -0.772   0.267  -1.504  1.00  0.00     0.223 C 
ATOM     14  O   UNL     1      -1.455   0.897  -2.377  1.00  0.00    -0.288 OA
BRANCH  13  15
ATOM     15  C   UNL     1       0.497  -0.257  -1.934  1.00  0.00     0.057 C 
BRANCH  15  16
ATOM     16  C   UNL     1       1.608  -0.474  -1.248  1.00  0.00     0.050 CG0
ATOM     17  G   UNL     1       1.815  -0.220   0.176  1.00  0.00     0.000 G0
ENDBRANCH  15  16
ENDBRANCH  13  15
ENDBRANCH   8  13
ENDBRANCH   1   8
TORSDOF 1
