REMARK SMILES COC(=O)C(O)(CSCC(O)CNC(C)(C)Cc1ccc2nc(-c3ccc(C)cc3)oc2c1)Cc1ccccc1
REMARK SMILES IDX 10 1 9 2 8 3 7 4 5 5 3 6 4 7 2 8 1 9 6 10 34 12 35 13 36 14
REMARK SMILES IDX 40 15 37 16 39 17 38 18 11 19 12 21 13 22 14 24 15 25 16 26
REMARK SMILES IDX 17 27 18 28 19 29 33 30 20 31 32 32 21 33 31 34 22 35 23 36
REMARK SMILES IDX 24 37 25 38 30 39 26 40 29 41 27 42 28 43
REMARK H PARENT 6 11 11 20 13 23
ROOT
ATOM      1  C   UNL     1      -1.966   1.639  -0.881  1.00  0.00     0.138 C 
ENDROOT
BRANCH   1   2
ATOM      2  C   UNL     1      -2.469   0.213  -0.775  1.00  0.00     0.102 C 
BRANCH   2   3
ATOM      3  S   UNL     1      -3.609  -0.053   0.575  1.00  0.00    -0.156 SA
BRANCH   3   4
ATOM      4  C   UNL     1      -5.177   0.825   0.343  1.00  0.00     0.117 C 
BRANCH   4   5
ATOM      5  C   UNL     1      -5.960   0.285  -0.818  1.00  0.00     0.174 C 
BRANCH   5   6
ATOM      6  C   UNL     1      -7.243   0.993  -1.018  1.00  0.00     0.339 C 
ATOM      7  O   UNL     1      -7.412   1.579  -2.116  1.00  0.00    -0.249 OA
BRANCH   6   8
ATOM      8  O   UNL     1      -8.227   1.027  -0.062  1.00  0.00    -0.467 OA
ATOM      9  C   UNL     1      -9.417   1.731  -0.348  1.00  0.00     0.282 C 
ENDBRANCH   6   8
ENDBRANCH   5   6
BRANCH   5  10
ATOM     10  O   UNL     1      -5.218   0.499  -2.000  1.00  0.00    -0.377 OA
ATOM     11  H   UNL     1      -4.821   1.395  -1.979  1.00  0.00     0.212 HD
ENDBRANCH   5  10
BRANCH   5  12
ATOM     12  C   UNL     1      -6.162  -1.207  -0.736  1.00  0.00     0.083 C 
BRANCH  12  13
ATOM     13  C   UNL     1      -7.033  -1.648   0.352  1.00  0.00    -0.045 A 
ATOM     14  C   UNL     1      -6.642  -1.967   1.621  1.00  0.00     0.004 A 
ATOM     15  C   UNL     1      -8.400  -1.756   0.072  1.00  0.00     0.004 A 
ATOM     16  C   UNL     1      -7.563  -2.375   2.575  1.00  0.00     0.000 A 
ATOM     17  C   UNL     1      -9.312  -2.160   1.018  1.00  0.00     0.000 A 
ATOM     18  C   UNL     1      -8.915  -2.477   2.285  1.00  0.00     0.000 A 
ENDBRANCH  12  13
ENDBRANCH   5  12
ENDBRANCH   4   5
ENDBRANCH   3   4
ENDBRANCH   2   3
ENDBRANCH   1   2
BRANCH   1  19
ATOM     19  O   UNL     1      -1.319   1.933   0.303  1.00  0.00    -0.391 OA
ATOM     20  H   UNL     1      -1.512   1.306   1.037  1.00  0.00     0.211 HD
ENDBRANCH   1  19
BRANCH   1  21
ATOM     21  C   UNL     1      -1.108   1.786  -2.103  1.00  0.00     0.114 C 
BRANCH  21  22
ATOM     22  N   UNL     1       0.013   0.995  -2.276  1.00  0.00    -0.309 NA
ATOM     23  H   UNL     1      -0.038   0.265  -2.993  1.00  0.00     0.123 HD
BRANCH  22  24
ATOM     24  C   UNL     1       1.181   1.031  -1.529  1.00  0.00     0.017 C 
ATOM     25  C   UNL     1       1.700   2.399  -1.129  1.00  0.00     0.028 C 
ATOM     26  C   UNL     1       2.297   0.591  -2.577  1.00  0.00     0.028 C 
BRANCH  24  27
ATOM     27  C   UNL     1       1.273   0.064  -0.387  1.00  0.00     0.057 C 
BRANCH  27  28
ATOM     28  C   UNL     1       2.618   0.273   0.275  1.00  0.00    -0.042 A 
ATOM     29  C   UNL     1       2.774   1.164   1.317  1.00  0.00     0.006 A 
ATOM     30  C   UNL     1       3.735  -0.442  -0.168  1.00  0.00     0.053 A 
ATOM     31  C   UNL     1       4.033   1.332   1.899  1.00  0.00     0.033 A 
ATOM     32  C   UNL     1       4.961  -0.249   0.433  1.00  0.00     0.155 A 
ATOM     33  C   UNL     1       5.133   0.640   1.476  1.00  0.00     0.110 A 
ATOM     34  O   UNL     1       6.112  -0.786   0.197  1.00  0.00    -0.436 OA
ATOM     35  N   UNL     1       6.438   0.556   1.793  1.00  0.00    -0.209 NA
ATOM     36  C   UNL     1       7.037  -0.325   1.001  1.00  0.00     0.227 A 
BRANCH  36  37
ATOM     37  C   UNL     1       8.441  -0.755   0.964  1.00  0.00     0.037 A 
ATOM     38  C   UNL     1       9.395  -0.244   1.819  1.00  0.00     0.014 A 
ATOM     39  C   UNL     1       8.859  -1.704   0.057  1.00  0.00     0.014 A 
ATOM     40  C   UNL     1      10.721  -0.689   1.744  1.00  0.00     0.004 A 
ATOM     41  C   UNL     1      10.160  -2.154  -0.032  1.00  0.00     0.004 A 
ATOM     42  C   UNL     1      11.112  -1.641   0.824  1.00  0.00    -0.051 A 
ATOM     43  C   UNL     1      12.507  -2.140   0.711  1.00  0.00     0.044 C 
ENDBRANCH  36  37
ENDBRANCH  27  28
ENDBRANCH  24  27
ENDBRANCH  22  24
ENDBRANCH  21  22
ENDBRANCH   1  21
TORSDOF 16
