REMARK SMILES CN(C)CCOCCCc1ccccc1
REMARK SMILES IDX 6 1 5 2 4 3 2 4 1 5 3 6 7 7 8 8 9 9 10 10 11 11 15 12 12 13
REMARK SMILES IDX 14 14 13 15
REMARK H PARENT
ROOT
ATOM      1  O   UNL     1      -0.900  -0.417  -1.038  1.00  0.00    -0.380 OA
ENDROOT
BRANCH   1   2
ATOM      2  C   UNL     1      -1.660   0.190  -0.022  1.00  0.00     0.175 C 
BRANCH   2   3
ATOM      3  C   UNL     1      -2.896   0.723  -0.697  1.00  0.00     0.112 C 
BRANCH   3   4
ATOM      4  N   UNL     1      -3.819   1.391   0.180  1.00  0.00    -0.307 NA
ATOM      5  C   UNL     1      -4.969   1.872  -0.523  1.00  0.00     0.105 C 
ATOM      6  C   UNL     1      -4.183   0.642   1.336  1.00  0.00     0.105 C 
ENDBRANCH   3   4
ENDBRANCH   2   3
ENDBRANCH   1   2
BRANCH   1   7
ATOM      7  C   UNL     1       0.261  -0.932  -0.480  1.00  0.00     0.160 C 
BRANCH   7   8
ATOM      8  C   UNL     1       1.148  -1.609  -1.499  1.00  0.00     0.033 C 
BRANCH   8   9
ATOM      9  C   UNL     1       2.373  -2.126  -0.772  1.00  0.00     0.038 C 
BRANCH   9  10
ATOM     10  C   UNL     1       3.136  -1.050  -0.115  1.00  0.00    -0.048 A 
ATOM     11  C   UNL     1       4.137  -0.440  -0.865  1.00  0.00     0.004 A 
ATOM     12  C   UNL     1       2.898  -0.639   1.179  1.00  0.00     0.004 A 
ATOM     13  C   UNL     1       4.917   0.586  -0.340  1.00  0.00     0.000 A 
ATOM     14  C   UNL     1       3.665   0.383   1.721  1.00  0.00     0.000 A 
ATOM     15  C   UNL     1       4.660   0.986   0.972  1.00  0.00     0.000 A 
ENDBRANCH   9  10
ENDBRANCH   8   9
ENDBRANCH   7   8
ENDBRANCH   1   7
TORSDOF 7
