REMARK SMILES O=Cc1cc(C=O)c2c(O)ccc(O)c2c1O
REMARK SMILES IDX 3 1 4 2 5 3 8 4 9 5 11 6 12 7 13 8 15 9 16 10 2 11 1 12
REMARK SMILES IDX 17 13 6 15 7 16 14 17 10 19
REMARK H PARENT 17 14 14 18 10 20
ROOT
ATOM      1  C   UNL     1       1.997  -0.524   0.287  1.00  0.00     0.058 A 
ATOM      2  C   UNL     1       1.291  -1.630  -0.105  1.00  0.00     0.027 A 
ATOM      3  C   UNL     1      -0.082  -1.629  -0.321  1.00  0.00     0.027 A 
ATOM      4  C   UNL     1      -0.714  -0.421  -0.114  1.00  0.00     0.042 A 
ATOM      5  C   UNL     1      -2.071  -0.318  -0.302  1.00  0.00     0.124 A 
ATOM      6  C   UNL     1      -2.659   0.908  -0.084  1.00  0.00     0.050 A 
ATOM      7  C   UNL     1      -1.985   2.036   0.308  1.00  0.00     0.051 A 
ATOM      8  C   UNL     1      -0.625   1.929   0.496  1.00  0.00     0.127 A 
ATOM      9  C   UNL     1       0.002   0.714   0.286  1.00  0.00     0.070 A 
ATOM     10  C   UNL     1       1.363   0.683   0.493  1.00  0.00     0.137 A 
ENDROOT
BRANCH   1  11
ATOM     11  C   UNL     1       3.433  -0.588   0.497  1.00  0.00     0.263 C 
ATOM     12  O   UNL     1       4.032   0.473   0.861  1.00  0.00    -0.298 OA
ENDBRANCH   1  11
BRANCH  10  13
ATOM     13  O   UNL     1       2.049   1.804   0.885  1.00  0.00    -0.506 OA
ATOM     14  H   UNL     1       2.520   2.339   0.179  1.00  0.00     0.293 HD
ENDBRANCH  10  13
BRANCH   3  15
ATOM     15  C   UNL     1      -0.731  -2.846  -0.732  1.00  0.00     0.260 C 
ATOM     16  O   UNL     1       0.019  -3.881  -0.876  1.00  0.00    -0.298 OA
ENDBRANCH   3  15
BRANCH   8  17
ATOM     17  O   UNL     1       0.081   3.063   0.894  1.00  0.00    -0.507 OA
ATOM     18  H   UNL     1       0.435   3.664   0.135  1.00  0.00     0.293 HD
ENDBRANCH   8  17
BRANCH   5  19
ATOM     19  O   UNL     1      -2.868  -1.352  -0.690  1.00  0.00    -0.507 OA
ATOM     20  H   UNL     1      -3.431  -1.390  -1.525  1.00  0.00     0.293 HD
ENDBRANCH   5  19
TORSDOF 5
