REMARK SMILES CC(CCCCOc1ccc(-c2ccc(O)cc2)cc1)C(O)=NO
REMARK SMILES IDX 4 1 3 2 2 3 1 4 21 5 22 6 23 8 24 9 5 11 6 12 7 13 8 14 9 15
REMARK SMILES IDX 20 16 10 17 19 18 11 19 12 20 13 21 18 22 14 23 17 24 15 25
REMARK SMILES IDX 16 26
REMARK H PARENT 22 7 24 10 16 27
ROOT
ATOM      1  C   UNL     1      -3.279  -1.753  -0.384  1.00  0.00     0.004 C 
ENDROOT
BRANCH   1   2
ATOM      2  C   UNL     1      -3.784  -0.343  -0.245  1.00  0.00     0.013 C 
BRANCH   2   3
ATOM      3  C   UNL     1      -5.274  -0.382   0.033  1.00  0.00     0.075 C 
ATOM      4  C   UNL     1      -5.603  -1.125   1.289  1.00  0.00     0.018 C 
BRANCH   3   5
ATOM      5  C   UNL     1      -5.739   1.037   0.214  1.00  0.00     0.225 C 
BRANCH   5   6
ATOM      6  O   UNL     1      -5.514   1.886  -0.862  1.00  0.00    -0.494 OA
ATOM      7  H   UNL     1      -5.425   2.890  -0.670  1.00  0.00     0.295 HD
ENDBRANCH   5   6
BRANCH   5   8
ATOM      8  N   UNL     1      -6.311   1.431   1.306  1.00  0.00    -0.055 NA
BRANCH   8   9
ATOM      9  O   UNL     1      -6.698   2.745   1.370  1.00  0.00    -0.408 OA
ATOM     10  H   UNL     1      -6.132   3.536   1.144  1.00  0.00     0.330 HD
ENDBRANCH   8   9
ENDBRANCH   5   8
ENDBRANCH   3   5
ENDBRANCH   2   3
ENDBRANCH   1   2
BRANCH   1  11
ATOM     11  C   UNL     1      -1.793  -1.823  -0.664  1.00  0.00     0.042 C 
BRANCH  11  12
ATOM     12  C   UNL     1      -1.403  -1.130  -1.919  1.00  0.00     0.229 C 
BRANCH  12  13
ATOM     13  O   UNL     1      -0.043  -1.206  -2.143  1.00  0.00    -0.494 OA
BRANCH  13  14
ATOM     14  C   UNL     1       1.047  -0.755  -1.498  1.00  0.00     0.119 A 
ATOM     15  C   UNL     1       1.103  -0.010  -0.347  1.00  0.00     0.047 A 
ATOM     16  C   UNL     1       2.296  -1.081  -2.061  1.00  0.00     0.047 A 
ATOM     17  C   UNL     1       2.291   0.402   0.240  1.00  0.00     0.012 A 
ATOM     18  C   UNL     1       3.478  -0.677  -1.487  1.00  0.00     0.012 A 
ATOM     19  C   UNL     1       3.499   0.070  -0.330  1.00  0.00    -0.018 A 
BRANCH  19  20
ATOM     20  C   UNL     1       4.775   0.478   0.245  1.00  0.00    -0.018 A 
ATOM     21  C   UNL     1       5.861   0.715  -0.581  1.00  0.00     0.012 A 
ATOM     22  C   UNL     1       4.952   0.641   1.605  1.00  0.00     0.012 A 
ATOM     23  C   UNL     1       7.091   1.105  -0.065  1.00  0.00     0.047 A 
ATOM     24  C   UNL     1       6.174   1.031   2.148  1.00  0.00     0.047 A 
ATOM     25  C   UNL     1       7.254   1.266   1.309  1.00  0.00     0.115 A 
BRANCH  25  26
ATOM     26  O   UNL     1       8.483   1.655   1.823  1.00  0.00    -0.508 OA
ATOM     27  H   UNL     1       9.089   2.195   1.215  1.00  0.00     0.293 HD
ENDBRANCH  25  26
ENDBRANCH  19  20
ENDBRANCH  13  14
ENDBRANCH  12  13
ENDBRANCH  11  12
ENDBRANCH   1  11
TORSDOF 12
