REMARK SMILES COc1ccc(C2NC(=S)N=C(C)C2C(C)=O)cc1
REMARK SMILES IDX 3 1 4 2 5 3 6 4 18 5 19 6 2 7 1 8 7 9 8 10 14 11 9 12 12 13
REMARK SMILES IDX 11 14 10 16 13 17 15 18 16 19 17 20
REMARK H PARENT 8 15
ROOT
ATOM      1  C   UNL     1       2.935  -0.451   0.526  1.00  0.00     0.118 A 
ATOM      2  C   UNL     1       2.103   0.254   1.392  1.00  0.00     0.047 A 
ATOM      3  C   UNL     1       0.902   0.735   0.909  1.00  0.00     0.010 A 
ATOM      4  C   UNL     1       0.539   0.512  -0.426  1.00  0.00    -0.024 A 
ATOM      5  C   UNL     1       1.360  -0.186  -1.291  1.00  0.00     0.010 A 
ATOM      6  C   UNL     1       2.567  -0.663  -0.786  1.00  0.00     0.047 A 
ENDROOT
BRANCH   1   7
ATOM      7  O   UNL     1       4.128  -0.909   1.069  1.00  0.00    -0.497 OA
ATOM      8  C   UNL     1       5.066  -1.645   0.277  1.00  0.00     0.278 C 
ENDBRANCH   1   7
BRANCH   4   9
ATOM      9  C   UNL     1      -0.769   1.088  -0.834  1.00  0.00     0.128 C 
ATOM     10  N   UNL     1      -0.870   2.467  -0.358  1.00  0.00    -0.353 N 
ATOM     11  C   UNL     1      -1.955   0.249  -0.540  1.00  0.00     0.127 C 
ATOM     12  C   UNL     1      -2.072   3.045   0.106  1.00  0.00     0.193 C 
ATOM     13  C   UNL     1      -3.138   0.985  -0.046  1.00  0.00     0.031 C 
ATOM     14  N   UNL     1      -3.211   2.220   0.245  1.00  0.00    -0.229 NA
ATOM     15  H   UNL     1       0.018   3.015  -0.380  1.00  0.00     0.163 HD
ATOM     16  S   UNL     1      -2.149   4.639   0.477  1.00  0.00    -0.039 S 
ATOM     17  C   UNL     1      -4.398   0.177   0.131  1.00  0.00     0.063 C 
BRANCH  11  18
ATOM     18  C   UNL     1      -1.703  -0.888   0.408  1.00  0.00     0.140 C 
ATOM     19  C   UNL     1      -0.828  -2.041   0.086  1.00  0.00     0.088 C 
ATOM     20  O   UNL     1      -2.233  -0.911   1.529  1.00  0.00    -0.299 OA
ENDBRANCH  11  18
ENDBRANCH   4   9
TORSDOF 3
