REMARK SMILES COC(=O)C(CCSC)NC(=O)c1cccc(S(=O)(=O)N2CCOCC2)c1
REMARK SMILES IDX 5 1 3 2 4 3 2 4 1 5 6 6 7 7 8 8 9 9 10 10 11 11 12 13 13 14
REMARK SMILES IDX 14 15 27 16 15 17 17 18 16 19 18 20 19 21 20 22 21 23 22 24
REMARK SMILES IDX 26 25 23 26 25 27 24 28
REMARK H PARENT 10 12
ROOT
ATOM      1  C   UNL     1      -3.488  -0.334   0.718  1.00  0.00     0.193 C 
ENDROOT
BRANCH   1   2
ATOM      2  C   UNL     1      -3.976  -0.116  -0.670  1.00  0.00     0.328 C 
ATOM      3  O   UNL     1      -5.207   0.045  -0.886  1.00  0.00    -0.250 OA
BRANCH   2   4
ATOM      4  O   UNL     1      -3.017  -0.102  -1.675  1.00  0.00    -0.467 OA
ATOM      5  C   UNL     1      -3.470   0.105  -3.000  1.00  0.00     0.282 C 
ENDBRANCH   2   4
ENDBRANCH   1   2
BRANCH   1   6
ATOM      6  C   UNL     1      -4.039   0.784   1.553  1.00  0.00     0.048 C 
BRANCH   6   7
ATOM      7  C   UNL     1      -3.598   2.143   1.086  1.00  0.00     0.072 C 
BRANCH   7   8
ATOM      8  S   UNL     1      -4.350   3.378   2.196  1.00  0.00    -0.165 SA
ATOM      9  C   UNL     1      -6.153   3.385   2.003  1.00  0.00     0.085 C 
ENDBRANCH   7   8
ENDBRANCH   6   7
ENDBRANCH   1   6
BRANCH   1  10
ATOM     10  N   UNL     1      -2.078  -0.499   0.797  1.00  0.00    -0.339 N 
ATOM     11  C   UNL     1      -1.459  -1.687   1.241  1.00  0.00     0.252 C 
ATOM     12  H   UNL     1      -1.464   0.313   0.509  1.00  0.00     0.164 HD
ATOM     13  O   UNL     1      -2.201  -2.639   1.579  1.00  0.00    -0.269 OA
BRANCH  11  14
ATOM     14  C   UNL     1      -0.016  -1.875   1.329  1.00  0.00     0.041 A 
ATOM     15  C   UNL     1       0.432  -3.099   1.782  1.00  0.00     0.014 A 
ATOM     16  C   UNL     1       0.901  -0.911   0.991  1.00  0.00     0.035 A 
ATOM     17  C   UNL     1       1.795  -3.358   1.896  1.00  0.00     0.002 A 
ATOM     18  C   UNL     1       2.261  -1.150   1.097  1.00  0.00     0.083 A 
ATOM     19  C   UNL     1       2.704  -2.374   1.550  1.00  0.00     0.022 A 
BRANCH  18  20
ATOM     20  S   UNL     1       3.345   0.143   0.639  1.00  0.00     0.243 S 
ATOM     21  O   UNL     1       2.736   1.503   0.949  1.00  0.00    -0.207 OA
ATOM     22  O   UNL     1       4.600   0.089   1.498  1.00  0.00    -0.207 OA
BRANCH  20  23
ATOM     23  N   UNL     1       3.731   0.109  -1.020  1.00  0.00    -0.193 NA
ATOM     24  C   UNL     1       4.401  -1.113  -1.351  1.00  0.00     0.131 C 
ATOM     25  C   UNL     1       4.527   1.257  -1.410  1.00  0.00     0.131 C 
ATOM     26  C   UNL     1       5.802  -0.831  -1.904  1.00  0.00     0.177 C 
ATOM     27  C   UNL     1       4.952   1.125  -2.841  1.00  0.00     0.177 C 
ATOM     28  O   UNL     1       5.768   0.010  -2.987  1.00  0.00    -0.379 OA
ENDBRANCH  20  23
ENDBRANCH  18  20
ENDBRANCH  11  14
ENDBRANCH   1  10
TORSDOF 9
