REMARK SMILES CCOc1ccc(C=CC#N)cc1OCC
REMARK SMILES IDX 4 1 5 2 6 3 7 4 12 5 13 6 3 7 2 8 1 9 14 10 15 11 16 12 8 13
REMARK SMILES IDX 9 14 10 15 11 16
REMARK H PARENT
ROOT
ATOM      1  C   UNL     1      -0.588   1.008  -0.136  1.00  0.00     0.161 A 
ATOM      2  C   UNL     1       0.393   1.974  -0.190  1.00  0.00     0.051 A 
ATOM      3  C   UNL     1       1.732   1.644  -0.134  1.00  0.00     0.012 A 
ATOM      4  C   UNL     1       2.143   0.311  -0.020  1.00  0.00    -0.021 A 
ATOM      5  C   UNL     1       1.159  -0.641   0.033  1.00  0.00     0.058 A 
ATOM      6  C   UNL     1      -0.200  -0.312  -0.023  1.00  0.00     0.161 A 
ENDROOT
BRANCH   1   7
ATOM      7  O   UNL     1      -1.924   1.345  -0.193  1.00  0.00    -0.490 OA
BRANCH   7   8
ATOM      8  C   UNL     1      -2.243   2.723  -0.308  1.00  0.00     0.226 C 
ATOM      9  C   UNL     1      -3.740   2.940  -0.359  1.00  0.00     0.049 C 
ENDBRANCH   7   8
ENDBRANCH   1   7
BRANCH   6  10
ATOM     10  O   UNL     1      -1.191  -1.264   0.029  1.00  0.00    -0.490 OA
BRANCH  10  11
ATOM     11  C   UNL     1      -0.883  -2.628   0.143  1.00  0.00     0.226 C 
ATOM     12  C   UNL     1      -2.130  -3.479   0.182  1.00  0.00     0.049 C 
ENDBRANCH  10  11
ENDBRANCH   6  10
BRANCH   4  13
ATOM     13  C   UNL     1       3.560  -0.026   0.039  1.00  0.00     0.019 C 
BRANCH  13  14
ATOM     14  C   UNL     1       4.014  -1.262   0.146  1.00  0.00     0.091 C 
BRANCH  14  15
ATOM     15  C   UNL     1       5.438  -1.546   0.201  1.00  0.00     0.091 C 
ATOM     16  N   UNL     1       6.564  -1.790   0.248  1.00  0.00    -0.193 NA
ENDBRANCH  14  15
ENDBRANCH  13  14
ENDBRANCH   4  13
TORSDOF 7
