REMARK SMILES CN(C)C1C=C(c2ccccc2)OC1
REMARK SMILES IDX 4 1 5 2 6 3 13 4 14 5 2 6 1 7 3 8 7 9 8 10 12 11 9 12 11 13
REMARK SMILES IDX 10 14
REMARK H PARENT
ROOT
ATOM      1  C   UNL     1      -1.873  -0.830  -0.690  1.00  0.00     0.120 C 
ATOM      2  C   UNL     1      -0.572  -0.853  -0.018  1.00  0.00     0.042 C 
ATOM      3  C   UNL     1       0.320  -0.095  -0.660  1.00  0.00     0.124 C 
ATOM      4  O   UNL     1      -0.324   0.449  -1.751  1.00  0.00    -0.491 OA
ATOM      5  C   UNL     1      -1.551  -0.244  -2.023  1.00  0.00     0.253 C 
ENDROOT
BRANCH   1   6
ATOM      6  N   UNL     1      -2.905  -0.165   0.045  1.00  0.00    -0.300 NA
ATOM      7  C   UNL     1      -2.655   1.205   0.339  1.00  0.00     0.105 C 
ATOM      8  C   UNL     1      -3.011  -0.864   1.325  1.00  0.00     0.105 C 
ENDBRANCH   1   6
BRANCH   3   9
ATOM      9  C   UNL     1       1.711   0.107  -0.264  1.00  0.00     0.016 A 
ATOM     10  C   UNL     1       2.561   0.925  -1.013  1.00  0.00     0.012 A 
ATOM     11  C   UNL     1       2.200  -0.517   0.866  1.00  0.00     0.012 A 
ATOM     12  C   UNL     1       3.883   1.090  -0.597  1.00  0.00     0.001 A 
ATOM     13  C   UNL     1       3.503  -0.339   1.253  1.00  0.00     0.001 A 
ATOM     14  C   UNL     1       4.357   0.462   0.532  1.00  0.00     0.000 A 
ENDBRANCH   3   9
TORSDOF 2
