REMARK SMILES CCN=c1[nH]c(=NCC)[nH]c(=Nc2ccccc2)[nH]1
REMARK SMILES IDX 4 1 5 2 6 3 10 4 11 5 19 6 3 10 2 11 1 12 7 13 8 14 9 15
REMARK SMILES IDX 12 16 13 17 14 18 18 19 15 20 17 21 16 22
REMARK H PARENT 5 7 10 8 19 9
ROOT
ATOM      1  C   UNL     1      -0.910  -1.170  -0.036  1.00  0.00     0.205 A 
ATOM      2  N   UNL     1      -1.923  -0.308  -0.234  1.00  0.00    -0.296 N 
ATOM      3  C   UNL     1      -1.731   1.018  -0.423  1.00  0.00     0.205 A 
ATOM      4  N   UNL     1      -0.459   1.450  -0.406  1.00  0.00    -0.296 N 
ATOM      5  C   UNL     1       0.586   0.607  -0.209  1.00  0.00     0.210 A 
ATOM      6  N   UNL     1       0.363  -0.692  -0.026  1.00  0.00    -0.296 N 
ATOM      7  H   UNL     1      -2.895  -0.654  -0.245  1.00  0.00     0.173 HD
ATOM      8  H   UNL     1      -0.305   2.467  -0.550  1.00  0.00     0.173 HD
ATOM      9  H   UNL     1       1.188  -1.328   0.125  1.00  0.00     0.173 HD
ENDROOT
BRANCH   1  10
ATOM     10  N   UNL     1      -1.055  -2.421   0.145  1.00  0.00    -0.253 NA
BRANCH  10  11
ATOM     11  C   UNL     1      -2.257  -3.179   0.181  1.00  0.00     0.143 C 
ATOM     12  C   UNL     1      -2.422  -3.894   1.522  1.00  0.00     0.029 C 
ENDBRANCH  10  11
ENDBRANCH   1  10
BRANCH   3  13
ATOM     13  N   UNL     1      -2.738   1.820  -0.611  1.00  0.00    -0.253 NA
BRANCH  13  14
ATOM     14  C   UNL     1      -2.571   3.235  -0.816  1.00  0.00     0.143 C 
ATOM     15  C   UNL     1      -3.954   3.847  -0.852  1.00  0.00     0.029 C 
ENDBRANCH  13  14
ENDBRANCH   3  13
BRANCH   5  16
ATOM     16  N   UNL     1       1.756   1.155  -0.215  1.00  0.00    -0.215 NA
BRANCH  16  17
ATOM     17  C   UNL     1       2.982   0.505  -0.036  1.00  0.00     0.067 A 
ATOM     18  C   UNL     1       3.438  -0.546  -0.813  1.00  0.00     0.028 A 
ATOM     19  C   UNL     1       3.809   0.944   0.999  1.00  0.00     0.028 A 
ATOM     20  C   UNL     1       4.676  -1.144  -0.571  1.00  0.00     0.002 A 
ATOM     21  C   UNL     1       5.045   0.333   1.225  1.00  0.00     0.002 A 
ATOM     22  C   UNL     1       5.495  -0.713   0.450  1.00  0.00     0.000 A 
ENDBRANCH  16  17
ENDBRANCH   5  16
TORSDOF 6
