MODEL 1
REMARK VINA RESULT:      -2.2      0.000      0.000
REMARK SMILES Cc1nc(=NC(C)c2cccc(OCc3ccccc3)c2)cc(-c2ccc(F)cc2)[nH]1
REMARK SMILES IDX 6 1 7 2 5 3 4 4 2 5 3 6 31 7 23 8 22 9 1 10 24 12 25 13
REMARK SMILES IDX 30 14 26 15 29 16 27 17 28 18 8 19 9 20 21 21 10 22 12 23
REMARK SMILES IDX 11 24 13 25 14 26 15 27 16 28 20 29 17 30 19 31 18 32
REMARK H PARENT 31 11
ROOT
ATOM      1  C   UNL     1       8.741   1.693   4.985  1.00  0.00     0.135 C 
ATOM      2  C   UNL     1       9.661   0.637   4.405  1.00  0.00     0.038 C 
ENDROOT
BRANCH   1   3
ATOM      3  N   UNL     1       7.371   1.241   4.752  1.00  0.00    -0.259 NA
BRANCH   3   4
ATOM      4  C   UNL     1       7.225   0.448   3.737  1.00  0.00     0.151 A 
ATOM      5  C   UNL     1       7.815  -1.490   2.542  1.00  0.00     0.105 A 
ATOM      6  N   UNL     1       7.980  -0.667   3.616  1.00  0.00    -0.217 NA
ATOM      7  N   UNL     1       6.893  -1.196   1.593  1.00  0.00    -0.343 N 
ATOM      8  C   UNL     1       6.109  -0.104   1.649  1.00  0.00     0.050 A 
ATOM      9  C   UNL     1       6.281   0.725   2.737  1.00  0.00     0.075 A 
ATOM     10  C   UNL     1       8.649  -2.709   2.421  1.00  0.00     0.087 C 
ATOM     11  H   UNL     1       6.828  -1.870   0.808  1.00  0.00     0.168 HD
BRANCH   8  12
ATOM     12  C   UNL     1       5.117   0.214   0.627  1.00  0.00    -0.002 A 
ATOM     13  C   UNL     1       3.819  -0.248   0.668  1.00  0.00     0.013 A 
ATOM     14  C   UNL     1       5.442   1.015  -0.462  1.00  0.00     0.013 A 
ATOM     15  C   UNL     1       2.883   0.064  -0.316  1.00  0.00     0.040 A 
ATOM     16  C   UNL     1       4.509   1.327  -1.444  1.00  0.00     0.040 A 
ATOM     17  C   UNL     1       3.232   0.861  -1.385  1.00  0.00     0.123 A 
ATOM     18  F   UNL     1       2.335   1.175  -2.350  1.00  0.00    -0.207 F 
ENDBRANCH   8  12
ENDBRANCH   3   4
ENDBRANCH   1   3
BRANCH   1  19
ATOM     19  C   UNL     1       9.000   3.023   4.398  1.00  0.00    -0.020 A 
ATOM     20  C   UNL     1       9.043   4.127   5.217  1.00  0.00     0.006 A 
ATOM     21  C   UNL     1       9.195   3.142   3.043  1.00  0.00     0.052 A 
ATOM     22  C   UNL     1       9.285   5.361   4.660  1.00  0.00     0.004 A 
ATOM     23  C   UNL     1       9.446   4.392   2.436  1.00  0.00     0.120 A 
ATOM     24  C   UNL     1       9.478   5.456   3.297  1.00  0.00     0.046 A 
BRANCH  23  25
ATOM     25  O   UNL     1       9.623   4.384   1.103  1.00  0.00    -0.489 OA
BRANCH  25  26
ATOM     26  C   UNL     1       8.922   4.817   0.026  1.00  0.00     0.265 C 
BRANCH  26  27
ATOM     27  C   UNL     1       7.447   4.810   0.101  1.00  0.00    -0.011 A 
ATOM     28  C   UNL     1       6.840   5.710   0.983  1.00  0.00     0.007 A 
ATOM     29  C   UNL     1       6.608   4.024  -0.631  1.00  0.00     0.007 A 
ATOM     30  C   UNL     1       5.469   5.771   1.085  1.00  0.00     0.000 A 
ATOM     31  C   UNL     1       5.229   4.074  -0.540  1.00  0.00     0.000 A 
ATOM     32  C   UNL     1       4.634   4.962   0.333  1.00  0.00     0.000 A 
ENDBRANCH  26  27
ENDBRANCH  25  26
ENDBRANCH  23  25
ENDBRANCH   1  19
TORSDOF 7
ENDMDL
MODEL 2
REMARK VINA RESULT:      -2.0      2.490      5.434
REMARK SMILES Cc1nc(=NC(C)c2cccc(OCc3ccccc3)c2)cc(-c2ccc(F)cc2)[nH]1
REMARK SMILES IDX 6 1 7 2 5 3 4 4 2 5 3 6 31 7 23 8 22 9 1 10 24 12 25 13
REMARK SMILES IDX 30 14 26 15 29 16 27 17 28 18 8 19 9 20 21 21 10 22 12 23
REMARK SMILES IDX 11 24 13 25 14 26 15 27 16 28 20 29 17 30 19 31 18 32
REMARK H PARENT 31 11
ROOT
ATOM      1  C   UNL     1       4.064  -0.602   0.526  1.00  0.00     0.135 C 
ATOM      2  C   UNL     1       4.051  -0.686   2.040  1.00  0.00     0.038 C 
ENDROOT
BRANCH   1   3
ATOM      3  N   UNL     1       5.162  -1.448   0.062  1.00  0.00    -0.259 NA
BRANCH   3   4
ATOM      4  C   UNL     1       6.345  -0.939   0.219  1.00  0.00     0.151 A 
ATOM      5  C   UNL     1       8.462  -0.942   1.243  1.00  0.00     0.105 A 
ATOM      6  N   UNL     1       7.223  -1.488   1.088  1.00  0.00    -0.217 NA
ATOM      7  N   UNL     1       8.820   0.152   0.526  1.00  0.00    -0.343 N 
ATOM      8  C   UNL     1       7.997   0.749  -0.355  1.00  0.00     0.050 A 
ATOM      9  C   UNL     1       6.745   0.192  -0.507  1.00  0.00     0.075 A 
ATOM     10  C   UNL     1       9.415  -1.553   2.199  1.00  0.00     0.087 C 
ATOM     11  H   UNL     1       9.778   0.508   0.700  1.00  0.00     0.168 HD
BRANCH   8  12
ATOM     12  C   UNL     1       8.381   1.926  -1.126  1.00  0.00    -0.002 A 
ATOM     13  C   UNL     1       8.590   3.165  -0.557  1.00  0.00     0.013 A 
ATOM     14  C   UNL     1       8.557   1.855  -2.504  1.00  0.00     0.013 A 
ATOM     15  C   UNL     1       8.956   4.280  -1.307  1.00  0.00     0.040 A 
ATOM     16  C   UNL     1       8.922   2.968  -3.253  1.00  0.00     0.040 A 
ATOM     17  C   UNL     1       9.124   4.181  -2.671  1.00  0.00     0.123 A 
ATOM     18  F   UNL     1       9.480   5.255  -3.416  1.00  0.00    -0.207 F 
ENDBRANCH   8  12
ENDBRANCH   3   4
ENDBRANCH   1   3
BRANCH   1  19
ATOM     19  C   UNL     1       4.193   0.792   0.057  1.00  0.00    -0.020 A 
ATOM     20  C   UNL     1       4.002   1.078  -1.274  1.00  0.00     0.006 A 
ATOM     21  C   UNL     1       4.501   1.785   0.954  1.00  0.00     0.052 A 
ATOM     22  C   UNL     1       4.124   2.380  -1.700  1.00  0.00     0.004 A 
ATOM     23  C   UNL     1       4.634   3.133   0.555  1.00  0.00     0.120 A 
ATOM     24  C   UNL     1       4.434   3.361  -0.781  1.00  0.00     0.046 A 
BRANCH  23  25
ATOM     25  O   UNL     1       4.937   4.016   1.522  1.00  0.00    -0.489 OA
BRANCH  25  26
ATOM     26  C   UNL     1       6.051   4.355   2.218  1.00  0.00     0.265 C 
BRANCH  26  27
ATOM     27  C   UNL     1       6.893   3.272   2.762  1.00  0.00    -0.011 A 
ATOM     28  C   UNL     1       8.240   3.561   3.008  1.00  0.00     0.007 A 
ATOM     29  C   UNL     1       6.479   2.012   3.076  1.00  0.00     0.007 A 
ATOM     30  C   UNL     1       9.075   2.603   3.536  1.00  0.00     0.000 A 
ATOM     31  C   UNL     1       7.306   1.039   3.608  1.00  0.00     0.000 A 
ATOM     32  C   UNL     1       8.635   1.327   3.848  1.00  0.00     0.000 A 
ENDBRANCH  26  27
ENDBRANCH  25  26
ENDBRANCH  23  25
ENDBRANCH   1  19
TORSDOF 7
ENDMDL
