MODEL 1
REMARK VINA RESULT:      -5.4      0.000      0.000
REMARK SMILES Cc1nn(-c2cc(C(F)(F)F)ccc2Cl)c2c1C(=O)NCC2
REMARK SMILES IDX 5 1 6 2 7 3 12 4 13 5 14 6 15 7 4 8 2 9 3 10 17 11 16 12
REMARK SMILES IDX 18 13 22 14 20 15 21 16 1 17 19 18 8 20 9 21 10 22 11 23
REMARK H PARENT 20 19
ROOT
ATOM      1  C   UNL     1       6.005   1.464   0.510  1.00  0.00     0.084 A 
ATOM      2  C   UNL     1       5.893   2.813   0.241  1.00  0.00     0.043 A 
ATOM      3  C   UNL     1       4.964   3.250  -0.685  1.00  0.00     0.058 A 
ATOM      4  C   UNL     1       4.125   2.394  -1.370  1.00  0.00     0.015 A 
ATOM      5  C   UNL     1       4.240   1.048  -1.098  1.00  0.00     0.023 A 
ATOM      6  C   UNL     1       5.168   0.603  -0.171  1.00  0.00     0.066 A 
ATOM      7  Cl  UNL     1       5.248  -1.117   0.113  1.00  0.00    -0.082 Cl
ENDROOT
BRANCH   1   8
ATOM      8  N   UNL     1       6.932   0.929   1.447  1.00  0.00    -0.235 N 
ATOM      9  C   UNL     1       8.346  -0.533   2.280  1.00  0.00     0.073 A 
ATOM     10  N   UNL     1       7.515  -0.261   1.252  1.00  0.00    -0.172 NA
ATOM     11  C   UNL     1       8.262   0.531   3.127  1.00  0.00     0.084 A 
ATOM     12  C   UNL     1       7.379   1.445   2.605  1.00  0.00     0.059 A 
ATOM     13  C   UNL     1       8.937   0.784   4.396  1.00  0.00     0.255 C 
ATOM     14  C   UNL     1       7.077   2.705   3.295  1.00  0.00     0.078 C 
ATOM     15  N   UNL     1       8.649   2.019   5.084  1.00  0.00    -0.352 N 
ATOM     16  C   UNL     1       8.121   3.100   4.299  1.00  0.00     0.122 C 
ATOM     17  C   UNL     1       9.140  -1.775   2.365  1.00  0.00     0.069 C 
ATOM     18  O   UNL     1       9.740  -0.046   4.872  1.00  0.00    -0.269 OA
ATOM     19  H   UNL     1       8.833   2.087   6.127  1.00  0.00     0.163 HD
ENDBRANCH   1   8
BRANCH   3  20
ATOM     20  C   UNL     1       4.833   4.709  -0.986  1.00  0.00     0.416 C 
ATOM     21  F   UNL     1       4.234   5.365   0.096  1.00  0.00    -0.166 F 
ATOM     22  F   UNL     1       6.095   5.279  -1.096  1.00  0.00    -0.166 F 
ATOM     23  F   UNL     1       4.056   4.908  -2.105  1.00  0.00    -0.166 F 
ENDBRANCH   3  20
TORSDOF 2
ENDMDL
MODEL 2
REMARK VINA RESULT:      -5.1      4.414      5.662
REMARK SMILES Cc1nn(-c2cc(C(F)(F)F)ccc2Cl)c2c1C(=O)NCC2
REMARK SMILES IDX 5 1 6 2 7 3 12 4 13 5 14 6 15 7 4 8 2 9 3 10 17 11 16 12
REMARK SMILES IDX 18 13 22 14 20 15 21 16 1 17 19 18 8 20 9 21 10 22 11 23
REMARK H PARENT 20 19
ROOT
ATOM      1  C   UNL     1       6.568   1.144   0.360  1.00  0.00     0.084 A 
ATOM      2  C   UNL     1       7.067   0.739   1.581  1.00  0.00     0.043 A 
ATOM      3  C   UNL     1       6.261   0.017   2.442  1.00  0.00     0.058 A 
ATOM      4  C   UNL     1       4.959  -0.328   2.141  1.00  0.00     0.015 A 
ATOM      5  C   UNL     1       4.466   0.078   0.920  1.00  0.00     0.023 A 
ATOM      6  C   UNL     1       5.268   0.801   0.052  1.00  0.00     0.066 A 
ATOM      7  Cl  UNL     1       4.565   1.276  -1.472  1.00  0.00    -0.082 Cl
ENDROOT
BRANCH   1   8
ATOM      8  N   UNL     1       7.329   1.888  -0.585  1.00  0.00    -0.235 N 
ATOM      9  C   UNL     1       8.576   2.216  -2.365  1.00  0.00     0.073 A 
ATOM     10  N   UNL     1       7.924   1.293  -1.627  1.00  0.00    -0.172 NA
ATOM     11  C   UNL     1       8.369   3.412  -1.746  1.00  0.00     0.084 A 
ATOM     12  C   UNL     1       7.588   3.206  -0.634  1.00  0.00     0.059 A 
ATOM     13  C   UNL     1       8.833   4.750  -2.096  1.00  0.00     0.255 C 
ATOM     14  C   UNL     1       7.192   4.314   0.244  1.00  0.00     0.078 C 
ATOM     15  N   UNL     1       8.450   5.847  -1.242  1.00  0.00    -0.352 N 
ATOM     16  C   UNL     1       7.292   5.660  -0.412  1.00  0.00     0.122 C 
ATOM     17  C   UNL     1       9.336   1.878  -3.585  1.00  0.00     0.069 C 
ATOM     18  O   UNL     1       9.542   4.938  -3.107  1.00  0.00    -0.269 OA
ATOM     19  H   UNL     1       9.025   6.739  -1.253  1.00  0.00     0.163 HD
ENDBRANCH   1   8
BRANCH   3  20
ATOM     20  C   UNL     1       6.788  -0.427   3.769  1.00  0.00     0.416 C 
ATOM     21  F   UNL     1       6.894   0.672   4.629  1.00  0.00    -0.166 F 
ATOM     22  F   UNL     1       5.869  -1.271   4.379  1.00  0.00    -0.166 F 
ATOM     23  F   UNL     1       8.032  -0.999   3.633  1.00  0.00    -0.166 F 
ENDBRANCH   3  20
TORSDOF 2
ENDMDL
MODEL 3
REMARK VINA RESULT:      -4.9      4.288      6.278
REMARK SMILES Cc1nn(-c2cc(C(F)(F)F)ccc2Cl)c2c1C(=O)NCC2
REMARK SMILES IDX 5 1 6 2 7 3 12 4 13 5 14 6 15 7 4 8 2 9 3 10 17 11 16 12
REMARK SMILES IDX 18 13 22 14 20 15 21 16 1 17 19 18 8 20 9 21 10 22 11 23
REMARK H PARENT 20 19
ROOT
ATOM      1  C   UNL     1       7.697   0.896   1.064  1.00  0.00     0.084 A 
ATOM      2  C   UNL     1       7.630   0.694   2.428  1.00  0.00     0.043 A 
ATOM      3  C   UNL     1       8.613  -0.047   3.057  1.00  0.00     0.058 A 
ATOM      4  C   UNL     1       9.678  -0.609   2.384  1.00  0.00     0.015 A 
ATOM      5  C   UNL     1       9.740  -0.404   1.022  1.00  0.00     0.023 A 
ATOM      6  C   UNL     1       8.760   0.338   0.385  1.00  0.00     0.066 A 
ATOM      7  Cl  UNL     1       8.915   0.547  -1.340  1.00  0.00    -0.082 Cl
ENDROOT
BRANCH   1   8
ATOM      8  N   UNL     1       6.729   1.646   0.339  1.00  0.00    -0.235 N 
ATOM      9  C   UNL     1       4.950   1.975  -0.909  1.00  0.00     0.073 A 
ATOM     10  N   UNL     1       5.720   1.045  -0.305  1.00  0.00    -0.172 NA
ATOM     11  C   UNL     1       5.515   3.181  -0.621  1.00  0.00     0.084 A 
ATOM     12  C   UNL     1       6.627   2.974   0.160  1.00  0.00     0.059 A 
ATOM     13  C   UNL     1       5.113   4.530  -1.007  1.00  0.00     0.255 C 
ATOM     14  C   UNL     1       7.453   4.091   0.635  1.00  0.00     0.078 C 
ATOM     15  N   UNL     1       5.916   5.636  -0.546  1.00  0.00    -0.352 N 
ATOM     16  C   UNL     1       6.741   5.412   0.609  1.00  0.00     0.122 C 
ATOM     17  C   UNL     1       3.753   1.635  -1.704  1.00  0.00     0.069 C 
ATOM     18  O   UNL     1       4.103   4.719  -1.716  1.00  0.00    -0.269 OA
ATOM     19  H   UNL     1       5.873   6.561  -1.065  1.00  0.00     0.163 HD
ENDBRANCH   1   8
BRANCH   3  20
ATOM     20  C   UNL     1       8.552  -0.274   4.535  1.00  0.00     0.416 C 
ATOM     21  F   UNL     1       7.280  -0.737   4.891  1.00  0.00    -0.166 F 
ATOM     22  F   UNL     1       9.418  -1.301   4.886  1.00  0.00    -0.166 F 
ATOM     23  F   UNL     1       8.802   0.894   5.217  1.00  0.00    -0.166 F 
ENDBRANCH   3  20
TORSDOF 2
ENDMDL
MODEL 4
REMARK VINA RESULT:      -4.7      2.241      3.371
REMARK SMILES Cc1nn(-c2cc(C(F)(F)F)ccc2Cl)c2c1C(=O)NCC2
REMARK SMILES IDX 5 1 6 2 7 3 12 4 13 5 14 6 15 7 4 8 2 9 3 10 17 11 16 12
REMARK SMILES IDX 18 13 22 14 20 15 21 16 1 17 19 18 8 20 9 21 10 22 11 23
REMARK H PARENT 20 19
ROOT
ATOM      1  C   UNL     1       6.305   3.292   1.865  1.00  0.00     0.084 A 
ATOM      2  C   UNL     1       6.001   2.998   0.552  1.00  0.00     0.043 A 
ATOM      3  C   UNL     1       5.121   3.806  -0.143  1.00  0.00     0.058 A 
ATOM      4  C   UNL     1       4.516   4.914   0.415  1.00  0.00     0.015 A 
ATOM      5  C   UNL     1       4.823   5.204   1.727  1.00  0.00     0.023 A 
ATOM      6  C   UNL     1       5.704   4.399   2.430  1.00  0.00     0.066 A 
ATOM      7  Cl  UNL     1       6.036   4.838   4.085  1.00  0.00    -0.082 Cl
ENDROOT
BRANCH   1   8
ATOM      8  N   UNL     1       7.200   2.515   2.652  1.00  0.00    -0.235 N 
ATOM      9  C   UNL     1       8.747   2.131   4.165  1.00  0.00     0.073 A 
ATOM     10  N   UNL     1       8.005   3.082   3.560  1.00  0.00    -0.172 NA
ATOM     11  C   UNL     1       8.378   0.947   3.603  1.00  0.00     0.084 A 
ATOM     12  C   UNL     1       7.410   1.187   2.657  1.00  0.00     0.059 A 
ATOM     13  C   UNL     1       8.846  -0.411   3.865  1.00  0.00     0.255 C 
ATOM     14  C   UNL     1       6.810   0.099   1.876  1.00  0.00     0.078 C 
ATOM     15  N   UNL     1       8.264  -1.488   3.104  1.00  0.00    -0.352 N 
ATOM     16  C   UNL     1       6.978  -1.252   2.507  1.00  0.00     0.122 C 
ATOM     17  C   UNL     1       9.738   2.434   5.218  1.00  0.00     0.069 C 
ATOM     18  O   UNL     1       9.725  -0.631   4.724  1.00  0.00    -0.269 OA
ATOM     19  H   UNL     1       8.794  -2.403   3.010  1.00  0.00     0.163 HD
ENDBRANCH   1   8
BRANCH   3  20
ATOM     20  C   UNL     1       4.783   3.497  -1.567  1.00  0.00     0.416 C 
ATOM     21  F   UNL     1       4.033   2.317  -1.632  1.00  0.00    -0.166 F 
ATOM     22  F   UNL     1       3.943   4.482  -2.072  1.00  0.00    -0.166 F 
ATOM     23  F   UNL     1       5.926   3.333  -2.315  1.00  0.00    -0.166 F 
ENDBRANCH   3  20
TORSDOF 2
ENDMDL
MODEL 5
REMARK VINA RESULT:      -4.3      2.271      3.576
REMARK SMILES Cc1nn(-c2cc(C(F)(F)F)ccc2Cl)c2c1C(=O)NCC2
REMARK SMILES IDX 5 1 6 2 7 3 12 4 13 5 14 6 15 7 4 8 2 9 3 10 17 11 16 12
REMARK SMILES IDX 18 13 22 14 20 15 21 16 1 17 19 18 8 20 9 21 10 22 11 23
REMARK H PARENT 20 19
ROOT
ATOM      1  C   UNL     1       6.880   3.777   0.895  1.00  0.00     0.084 A 
ATOM      2  C   UNL     1       5.703   3.781   0.174  1.00  0.00     0.043 A 
ATOM      3  C   UNL     1       5.459   4.798  -0.730  1.00  0.00     0.058 A 
ATOM      4  C   UNL     1       6.345   5.831  -0.956  1.00  0.00     0.015 A 
ATOM      5  C   UNL     1       7.519   5.824  -0.234  1.00  0.00     0.023 A 
ATOM      6  C   UNL     1       7.771   4.808   0.674  1.00  0.00     0.066 A 
ATOM      7  Cl  UNL     1       9.280   4.875   1.546  1.00  0.00    -0.082 Cl
ENDROOT
BRANCH   1   8
ATOM      8  N   UNL     1       7.211   2.769   1.844  1.00  0.00    -0.235 N 
ATOM      9  C   UNL     1       7.970   1.948   3.736  1.00  0.00     0.073 A 
ATOM     10  N   UNL     1       7.755   3.078   3.028  1.00  0.00    -0.172 NA
ATOM     11  C   UNL     1       7.540   0.921   2.951  1.00  0.00     0.084 A 
ATOM     12  C   UNL     1       7.065   1.435   1.768  1.00  0.00     0.059 A 
ATOM     13  C   UNL     1       7.528  -0.517   3.199  1.00  0.00     0.255 C 
ATOM     14  C   UNL     1       6.530   0.569   0.711  1.00  0.00     0.078 C 
ATOM     15  N   UNL     1       7.004  -1.379   2.168  1.00  0.00    -0.352 N 
ATOM     16  C   UNL     1       6.118  -0.788   1.204  1.00  0.00     0.122 C 
ATOM     17  C   UNL     1       8.562   1.948   5.089  1.00  0.00     0.069 C 
ATOM     18  O   UNL     1       7.959  -0.986   4.273  1.00  0.00    -0.269 OA
ATOM     19  H   UNL     1       7.285  -2.403   2.155  1.00  0.00     0.163 HD
ENDBRANCH   1   8
BRANCH   3  20
ATOM     20  C   UNL     1       4.187   4.814  -1.517  1.00  0.00     0.416 C 
ATOM     21  F   UNL     1       4.258   5.797  -2.511  1.00  0.00    -0.166 F 
ATOM     22  F   UNL     1       4.050   3.616  -2.207  1.00  0.00    -0.166 F 
ATOM     23  F   UNL     1       3.113   5.089  -0.702  1.00  0.00    -0.166 F 
ENDBRANCH   3  20
TORSDOF 2
ENDMDL
MODEL 6
REMARK VINA RESULT:      -4.1      4.563      6.905
REMARK SMILES Cc1nn(-c2cc(C(F)(F)F)ccc2Cl)c2c1C(=O)NCC2
REMARK SMILES IDX 5 1 6 2 7 3 12 4 13 5 14 6 15 7 4 8 2 9 3 10 17 11 16 12
REMARK SMILES IDX 18 13 22 14 20 15 21 16 1 17 19 18 8 20 9 21 10 22 11 23
REMARK H PARENT 20 19
ROOT
ATOM      1  C   UNL     1       7.215   2.565   2.734  1.00  0.00     0.084 A 
ATOM      2  C   UNL     1       7.041   1.231   3.043  1.00  0.00     0.043 A 
ATOM      3  C   UNL     1       8.022   0.560   3.750  1.00  0.00     0.058 A 
ATOM      4  C   UNL     1       9.189   1.162   4.171  1.00  0.00     0.015 A 
ATOM      5  C   UNL     1       9.359   2.494   3.860  1.00  0.00     0.023 A 
ATOM      6  C   UNL     1       8.380   3.173   3.153  1.00  0.00     0.066 A 
ATOM      7  Cl  UNL     1       8.675   4.856   2.801  1.00  0.00    -0.082 Cl
ENDROOT
BRANCH   1   8
ATOM      8  N   UNL     1       6.256   3.329   2.012  1.00  0.00    -0.235 N 
ATOM      9  C   UNL     1       4.658   4.809   1.722  1.00  0.00     0.073 A 
ATOM     10  N   UNL     1       5.472   4.224   2.626  1.00  0.00    -0.172 NA
ATOM     11  C   UNL     1       4.961   4.247   0.518  1.00  0.00     0.084 A 
ATOM     12  C   UNL     1       5.962   3.322   0.700  1.00  0.00     0.059 A 
ATOM     13  C   UNL     1       4.402   4.492  -0.808  1.00  0.00     0.255 C 
ATOM     14  C   UNL     1       6.506   2.546  -0.420  1.00  0.00     0.078 C 
ATOM     15  N   UNL     1       4.929   3.736  -1.917  1.00  0.00    -0.352 N 
ATOM     16  C   UNL     1       6.239   3.166  -1.761  1.00  0.00     0.122 C 
ATOM     17  C   UNL     1       3.668   5.844   2.082  1.00  0.00     0.069 C 
ATOM     18  O   UNL     1       3.494   5.332  -0.974  1.00  0.00    -0.269 OA
ATOM     19  H   UNL     1       4.343   3.627  -2.795  1.00  0.00     0.163 HD
ENDBRANCH   1   8
BRANCH   3  20
ATOM     20  C   UNL     1       7.846  -0.886   4.091  1.00  0.00     0.416 C 
ATOM     21  F   UNL     1       6.507  -1.137   4.414  1.00  0.00    -0.166 F 
ATOM     22  F   UNL     1       8.096  -1.664   2.969  1.00  0.00    -0.166 F 
ATOM     23  F   UNL     1       8.630  -1.231   5.168  1.00  0.00    -0.166 F 
ENDBRANCH   3  20
TORSDOF 2
ENDMDL
MODEL 7
REMARK VINA RESULT:      -4.0      2.362      3.525
REMARK SMILES Cc1nn(-c2cc(C(F)(F)F)ccc2Cl)c2c1C(=O)NCC2
REMARK SMILES IDX 5 1 6 2 7 3 12 4 13 5 14 6 15 7 4 8 2 9 3 10 17 11 16 12
REMARK SMILES IDX 18 13 22 14 20 15 21 16 1 17 19 18 8 20 9 21 10 22 11 23
REMARK H PARENT 20 19
ROOT
ATOM      1  C   UNL     1       7.508   3.340   1.072  1.00  0.00     0.084 A 
ATOM      2  C   UNL     1       6.358   3.104   0.347  1.00  0.00     0.043 A 
ATOM      3  C   UNL     1       5.957   4.015  -0.613  1.00  0.00     0.058 A 
ATOM      4  C   UNL     1       6.657   5.171  -0.891  1.00  0.00     0.015 A 
ATOM      5  C   UNL     1       7.805   5.402  -0.164  1.00  0.00     0.023 A 
ATOM      6  C   UNL     1       8.214   4.494   0.799  1.00  0.00     0.066 A 
ATOM      7  Cl  UNL     1       9.677   4.864   1.673  1.00  0.00    -0.082 Cl
ENDROOT
BRANCH   1   8
ATOM      8  N   UNL     1       7.992   2.456   2.077  1.00  0.00    -0.235 N 
ATOM      9  C   UNL     1       8.991   1.877   3.947  1.00  0.00     0.073 A 
ATOM     10  N   UNL     1       8.641   2.913   3.156  1.00  0.00    -0.172 NA
ATOM     11  C   UNL     1       8.538   0.753   3.324  1.00  0.00     0.084 A 
ATOM     12  C   UNL     1       7.913   1.116   2.154  1.00  0.00     0.059 A 
ATOM     13  C   UNL     1       8.630  -0.649   3.717  1.00  0.00     0.255 C 
ATOM     14  C   UNL     1       7.317   0.118   1.258  1.00  0.00     0.078 C 
ATOM     15  N   UNL     1       8.048  -1.639   2.845  1.00  0.00    -0.352 N 
ATOM     16  C   UNL     1       7.034  -1.193   1.930  1.00  0.00     0.122 C 
ATOM     17  C   UNL     1       9.723   2.048   5.218  1.00  0.00     0.069 C 
ATOM     18  O   UNL     1       9.198  -0.980   4.779  1.00  0.00    -0.269 OA
ATOM     19  H   UNL     1       8.382  -2.645   2.906  1.00  0.00     0.163 HD
ENDBRANCH   1   8
BRANCH   3  20
ATOM     20  C   UNL     1       4.712   3.772  -1.405  1.00  0.00     0.416 C 
ATOM     21  F   UNL     1       5.047   3.416  -2.717  1.00  0.00    -0.166 F 
ATOM     22  F   UNL     1       4.041   2.668  -0.895  1.00  0.00    -0.166 F 
ATOM     23  F   UNL     1       3.930   4.903  -1.443  1.00  0.00    -0.166 F 
ENDBRANCH   3  20
TORSDOF 2
ENDMDL
MODEL 8
REMARK VINA RESULT:      -3.7      4.614      6.566
REMARK SMILES Cc1nn(-c2cc(C(F)(F)F)ccc2Cl)c2c1C(=O)NCC2
REMARK SMILES IDX 5 1 6 2 7 3 12 4 13 5 14 6 15 7 4 8 2 9 3 10 17 11 16 12
REMARK SMILES IDX 18 13 22 14 20 15 21 16 1 17 19 18 8 20 9 21 10 22 11 23
REMARK H PARENT 20 19
ROOT
ATOM      1  C   UNL     1       7.706   2.293   2.145  1.00  0.00     0.084 A 
ATOM      2  C   UNL     1       7.636   0.959   2.489  1.00  0.00     0.043 A 
ATOM      3  C   UNL     1       8.613   0.411   3.300  1.00  0.00     0.058 A 
ATOM      4  C   UNL     1       9.676   1.140   3.794  1.00  0.00     0.015 A 
ATOM      5  C   UNL     1       9.740   2.472   3.448  1.00  0.00     0.023 A 
ATOM      6  C   UNL     1       8.765   3.028   2.636  1.00  0.00     0.066 A 
ATOM      7  Cl  UNL     1       8.923   4.721   2.246  1.00  0.00    -0.082 Cl
ENDROOT
BRANCH   1   8
ATOM      8  N   UNL     1       6.743   2.936   1.317  1.00  0.00    -0.235 N 
ATOM      9  C   UNL     1       5.645   3.376  -0.536  1.00  0.00     0.073 A 
ATOM     10  N   UNL     1       6.625   2.630   0.018  1.00  0.00    -0.172 NA
ATOM     11  C   UNL     1       5.155   4.161   0.464  1.00  0.00     0.084 A 
ATOM     12  C   UNL     1       5.842   3.885   1.623  1.00  0.00     0.059 A 
ATOM     13  C   UNL     1       4.091   5.160   0.447  1.00  0.00     0.255 C 
ATOM     14  C   UNL     1       5.538   4.576   2.881  1.00  0.00     0.078 C 
ATOM     15  N   UNL     1       3.783   5.846   1.678  1.00  0.00    -0.352 N 
ATOM     16  C   UNL     1       4.176   5.206   2.902  1.00  0.00     0.122 C 
ATOM     17  C   UNL     1       5.267   3.277  -1.960  1.00  0.00     0.069 C 
ATOM     18  O   UNL     1       3.466   5.412  -0.605  1.00  0.00    -0.269 OA
ATOM     19  H   UNL     1       3.286   6.783   1.639  1.00  0.00     0.163 HD
ENDBRANCH   1   8
BRANCH   3  20
ATOM     20  C   UNL     1       8.551  -1.034   3.681  1.00  0.00     0.416 C 
ATOM     21  F   UNL     1       7.518  -1.665   2.978  1.00  0.00    -0.166 F 
ATOM     22  F   UNL     1       9.710  -1.677   3.267  1.00  0.00    -0.166 F 
ATOM     23  F   UNL     1       8.313  -1.173   5.029  1.00  0.00    -0.166 F 
ENDBRANCH   3  20
TORSDOF 2
ENDMDL
MODEL 9
REMARK VINA RESULT:      -3.6      2.272      3.560
REMARK SMILES Cc1nn(-c2cc(C(F)(F)F)ccc2Cl)c2c1C(=O)NCC2
REMARK SMILES IDX 5 1 6 2 7 3 12 4 13 5 14 6 15 7 4 8 2 9 3 10 17 11 16 12
REMARK SMILES IDX 18 13 22 14 20 15 21 16 1 17 19 18 8 20 9 21 10 22 11 23
REMARK H PARENT 20 19
ROOT
ATOM      1  C   UNL     1       5.449   3.741   1.527  1.00  0.00     0.084 A 
ATOM      2  C   UNL     1       5.135   3.769   0.183  1.00  0.00     0.043 A 
ATOM      3  C   UNL     1       4.302   4.760  -0.302  1.00  0.00     0.058 A 
ATOM      4  C   UNL     1       3.757   5.742   0.498  1.00  0.00     0.015 A 
ATOM      5  C   UNL     1       4.074   5.711   1.838  1.00  0.00     0.023 A 
ATOM      6  C   UNL     1       4.908   4.721   2.333  1.00  0.00     0.066 A 
ATOM      7  Cl  UNL     1       5.257   4.754   4.042  1.00  0.00    -0.082 Cl
ENDROOT
BRANCH   1   8
ATOM      8  N   UNL     1       6.298   2.758   2.109  1.00  0.00    -0.235 N 
ATOM      9  C   UNL     1       7.908   1.982   3.389  1.00  0.00     0.073 A 
ATOM     10  N   UNL     1       7.249   3.091   2.992  1.00  0.00    -0.172 NA
ATOM     11  C   UNL     1       7.335   0.941   2.721  1.00  0.00     0.084 A 
ATOM     12  C   UNL     1       6.328   1.427   1.922  1.00  0.00     0.059 A 
ATOM     13  C   UNL     1       7.638  -0.486   2.757  1.00  0.00     0.255 C 
ATOM     14  C   UNL     1       5.521   0.540   1.075  1.00  0.00     0.078 C 
ATOM     15  N   UNL     1       6.852  -1.368   1.930  1.00  0.00    -0.352 N 
ATOM     16  C   UNL     1       5.562  -0.896   1.508  1.00  0.00     0.122 C 
ATOM     17  C   UNL     1       9.018   2.012   4.361  1.00  0.00     0.069 C 
ATOM     18  O   UNL     1       8.552  -0.929   3.483  1.00  0.00    -0.269 OA
ATOM     19  H   UNL     1       7.244  -2.318   1.664  1.00  0.00     0.163 HD
ENDBRANCH   1   8
BRANCH   3  20
ATOM     20  C   UNL     1       3.953   4.801  -1.756  1.00  0.00     0.416 C 
ATOM     21  F   UNL     1       4.328   3.600  -2.368  1.00  0.00    -0.166 F 
ATOM     22  F   UNL     1       2.573   4.863  -1.904  1.00  0.00    -0.166 F 
ATOM     23  F   UNL     1       4.606   5.837  -2.385  1.00  0.00    -0.166 F 
ENDBRANCH   3  20
TORSDOF 2
ENDMDL
