MODEL 1
REMARK VINA RESULT:      -4.5      0.000      0.000
REMARK SMILES CC=C1OC(=O)C(C=CC(C)=O)(CC)C1C(=O)OC
REMARK SMILES IDX 3 1 4 2 5 3 6 4 7 5 15 6 2 7 1 8 16 9 17 10 18 11 19 12 8 13
REMARK SMILES IDX 9 14 10 15 11 16 12 17 13 18 14 19
REMARK H PARENT
ROOT
ATOM      1  C   UNL     1       7.514   1.586   1.670  1.00  0.00     0.119 C 
ATOM      2  O   UNL     1       7.811   0.985   0.453  1.00  0.00    -0.430 OA
ATOM      3  C   UNL     1       6.647   0.515  -0.173  1.00  0.00     0.322 C 
ATOM      4  O   UNL     1       6.626  -0.150  -1.251  1.00  0.00    -0.251 OA
ATOM      5  C   UNL     1       5.526   0.956   0.685  1.00  0.00     0.107 C 
ATOM      6  C   UNL     1       6.142   1.056   2.022  1.00  0.00     0.186 C 
ENDROOT
BRANCH   1   7
ATOM      7  C   UNL     1       8.251   2.432   2.372  1.00  0.00     0.013 C 
ATOM      8  C   UNL     1       7.563   3.269   3.372  1.00  0.00     0.039 C 
ENDBRANCH   1   7
BRANCH   6   9
ATOM      9  C   UNL     1       6.382  -0.190   2.749  1.00  0.00     0.317 C 
ATOM     10  O   UNL     1       6.786  -1.268   2.247  1.00  0.00    -0.251 OA
BRANCH   9  11
ATOM     11  O   UNL     1       6.144  -0.201   4.123  1.00  0.00    -0.468 OA
ATOM     12  C   UNL     1       7.269  -0.118   5.008  1.00  0.00     0.282 C 
ENDBRANCH   9  11
ENDBRANCH   6   9
BRANCH   5  13
ATOM     13  C   UNL     1       5.211   2.372   0.264  1.00  0.00    -0.004 C 
BRANCH  13  14
ATOM     14  C   UNL     1       4.539   3.193   1.064  1.00  0.00     0.044 C 
BRANCH  14  15
ATOM     15  C   UNL     1       4.620   4.657   0.920  1.00  0.00     0.152 C 
ATOM     16  C   UNL     1       4.165   5.269  -0.377  1.00  0.00     0.093 C 
ATOM     17  O   UNL     1       5.062   5.387   1.866  1.00  0.00    -0.295 OA
ENDBRANCH  14  15
ENDBRANCH  13  14
ENDBRANCH   5  13
BRANCH   5  18
ATOM     18  C   UNL     1       4.275   0.174   0.556  1.00  0.00     0.021 C 
ATOM     19  C   UNL     1       3.594   0.550  -0.768  1.00  0.00     0.005 C 
ENDBRANCH   5  18
TORSDOF 7
ENDMDL
MODEL 2
REMARK VINA RESULT:      -4.5      1.399      1.646
REMARK SMILES CC=C1OC(=O)C(C=CC(C)=O)(CC)C1C(=O)OC
REMARK SMILES IDX 3 1 4 2 5 3 6 4 7 5 15 6 2 7 1 8 16 9 17 10 18 11 19 12 8 13
REMARK SMILES IDX 9 14 10 15 11 16 12 17 13 18 14 19
REMARK H PARENT
ROOT
ATOM      1  C   UNL     1       6.999   1.836   1.815  1.00  0.00     0.119 C 
ATOM      2  O   UNL     1       7.785   1.558   0.703  1.00  0.00    -0.430 OA
ATOM      3  C   UNL     1       7.079   0.783  -0.229  1.00  0.00     0.322 C 
ATOM      4  O   UNL     1       7.574   0.311  -1.296  1.00  0.00    -0.251 OA
ATOM      5  C   UNL     1       5.707   0.660   0.309  1.00  0.00     0.107 C 
ATOM      6  C   UNL     1       5.903   0.796   1.766  1.00  0.00     0.186 C 
ENDROOT
BRANCH   1   7
ATOM      7  C   UNL     1       7.160   2.789   2.720  1.00  0.00     0.013 C 
ATOM      8  C   UNL     1       6.353   4.013   2.571  1.00  0.00     0.039 C 
ENDBRANCH   1   7
BRANCH   6   9
ATOM      9  C   UNL     1       6.432  -0.362   2.487  1.00  0.00     0.317 C 
ATOM     10  O   UNL     1       5.949  -0.857   3.534  1.00  0.00    -0.251 OA
BRANCH   9  11
ATOM     11  O   UNL     1       7.573  -0.982   1.979  1.00  0.00    -0.468 OA
ATOM     12  C   UNL     1       8.661  -1.241   2.877  1.00  0.00     0.282 C 
ENDBRANCH   9  11
ENDBRANCH   6   9
BRANCH   5  13
ATOM     13  C   UNL     1       4.974   1.905  -0.130  1.00  0.00    -0.004 C 
BRANCH  13  14
ATOM     14  C   UNL     1       5.372   2.599  -1.192  1.00  0.00     0.044 C 
BRANCH  14  15
ATOM     15  C   UNL     1       5.595   4.053  -1.129  1.00  0.00     0.152 C 
ATOM     16  C   UNL     1       4.405   4.961  -1.279  1.00  0.00     0.093 C 
ATOM     17  O   UNL     1       6.762   4.532  -0.953  1.00  0.00    -0.295 OA
ENDBRANCH  14  15
ENDBRANCH  13  14
ENDBRANCH   5  13
BRANCH   5  18
ATOM     18  C   UNL     1       4.929  -0.501  -0.179  1.00  0.00     0.021 C 
ATOM     19  C   UNL     1       3.434  -0.199  -0.008  1.00  0.00     0.005 C 
ENDBRANCH   5  18
TORSDOF 7
ENDMDL
MODEL 3
REMARK VINA RESULT:      -4.4      1.570      1.743
REMARK SMILES CC=C1OC(=O)C(C=CC(C)=O)(CC)C1C(=O)OC
REMARK SMILES IDX 3 1 4 2 5 3 6 4 7 5 15 6 2 7 1 8 16 9 17 10 18 11 19 12 8 13
REMARK SMILES IDX 9 14 10 15 11 16 12 17 13 18 14 19
REMARK H PARENT
ROOT
ATOM      1  C   UNL     1       6.722   2.458   1.795  1.00  0.00     0.119 C 
ATOM      2  O   UNL     1       7.605   2.273   0.738  1.00  0.00    -0.430 OA
ATOM      3  C   UNL     1       7.073   1.390  -0.213  1.00  0.00     0.322 C 
ATOM      4  O   UNL     1       7.692   0.973  -1.237  1.00  0.00    -0.251 OA
ATOM      5  C   UNL     1       5.701   1.086   0.247  1.00  0.00     0.107 C 
ATOM      6  C   UNL     1       5.786   1.274   1.709  1.00  0.00     0.186 C 
ENDROOT
BRANCH   1   7
ATOM      7  C   UNL     1       6.693   3.440   2.681  1.00  0.00     0.013 C 
ATOM      8  C   UNL     1       5.588   4.411   2.588  1.00  0.00     0.039 C 
ENDBRANCH   1   7
BRANCH   6   9
ATOM      9  C   UNL     1       6.425   0.215   2.489  1.00  0.00     0.317 C 
ATOM     10  O   UNL     1       5.858  -0.814   2.934  1.00  0.00    -0.251 OA
BRANCH   9  11
ATOM     11  O   UNL     1       7.784   0.343   2.775  1.00  0.00    -0.468 OA
ATOM     12  C   UNL     1       8.444  -0.743   3.439  1.00  0.00     0.282 C 
ENDBRANCH   9  11
ENDBRANCH   6   9
BRANCH   5  13
ATOM     13  C   UNL     1       4.829   2.207  -0.267  1.00  0.00    -0.004 C 
BRANCH  13  14
ATOM     14  C   UNL     1       5.229   2.984  -1.268  1.00  0.00     0.044 C 
BRANCH  14  15
ATOM     15  C   UNL     1       5.190   4.453  -1.174  1.00  0.00     0.152 C 
ATOM     16  C   UNL     1       6.468   5.178  -0.849  1.00  0.00     0.093 C 
ATOM     17  O   UNL     1       4.106   5.096  -1.363  1.00  0.00    -0.295 OA
ENDBRANCH  14  15
ENDBRANCH  13  14
ENDBRANCH   5  13
BRANCH   5  18
ATOM     18  C   UNL     1       5.123  -0.182  -0.255  1.00  0.00     0.021 C 
ATOM     19  C   UNL     1       3.597  -0.124  -0.096  1.00  0.00     0.005 C 
ENDBRANCH   5  18
TORSDOF 7
ENDMDL
MODEL 4
REMARK VINA RESULT:      -4.3      1.388      5.149
REMARK SMILES CC=C1OC(=O)C(C=CC(C)=O)(CC)C1C(=O)OC
REMARK SMILES IDX 3 1 4 2 5 3 6 4 7 5 15 6 2 7 1 8 16 9 17 10 18 11 19 12 8 13
REMARK SMILES IDX 9 14 10 15 11 16 12 17 13 18 14 19
REMARK H PARENT
ROOT
ATOM      1  C   UNL     1       5.081   0.828  -0.106  1.00  0.00     0.119 C 
ATOM      2  O   UNL     1       6.323   0.439  -0.592  1.00  0.00    -0.430 OA
ATOM      3  C   UNL     1       7.355   1.136   0.053  1.00  0.00     0.322 C 
ATOM      4  O   UNL     1       8.583   1.047  -0.247  1.00  0.00    -0.251 OA
ATOM      5  C   UNL     1       6.697   1.949   1.099  1.00  0.00     0.107 C 
ATOM      6  C   UNL     1       5.341   2.162   0.556  1.00  0.00     0.186 C 
ENDROOT
BRANCH   1   7
ATOM      7  C   UNL     1       3.925   0.188  -0.194  1.00  0.00     0.013 C 
ATOM      8  C   UNL     1       2.903   0.484   0.826  1.00  0.00     0.039 C 
ENDBRANCH   1   7
BRANCH   6   9
ATOM      9  C   UNL     1       5.187   3.159  -0.502  1.00  0.00     0.317 C 
ATOM     10  O   UNL     1       4.927   2.917  -1.707  1.00  0.00    -0.251 OA
BRANCH   9  11
ATOM     11  O   UNL     1       5.339   4.503  -0.162  1.00  0.00    -0.468 OA
ATOM     12  C   UNL     1       4.167   5.252   0.187  1.00  0.00     0.282 C 
ENDBRANCH   9  11
ENDBRANCH   6   9
BRANCH   5  13
ATOM     13  C   UNL     1       6.530   1.038   2.292  1.00  0.00    -0.004 C 
BRANCH  13  14
ATOM     14  C   UNL     1       7.533   0.280   2.724  1.00  0.00     0.044 C 
BRANCH  14  15
ATOM     15  C   UNL     1       7.630  -0.152   4.128  1.00  0.00     0.152 C 
ATOM     16  C   UNL     1       8.890  -0.844   4.573  1.00  0.00     0.093 C 
ATOM     17  O   UNL     1       6.675   0.052   4.947  1.00  0.00    -0.295 OA
ENDBRANCH  14  15
ENDBRANCH  13  14
ENDBRANCH   5  13
BRANCH   5  18
ATOM     18  C   UNL     1       7.454   3.136   1.557  1.00  0.00     0.021 C 
ATOM     19  C   UNL     1       6.772   3.698   2.813  1.00  0.00     0.005 C 
ENDBRANCH   5  18
TORSDOF 7
ENDMDL
MODEL 5
REMARK VINA RESULT:      -4.3      1.215      1.316
REMARK SMILES CC=C1OC(=O)C(C=CC(C)=O)(CC)C1C(=O)OC
REMARK SMILES IDX 3 1 4 2 5 3 6 4 7 5 15 6 2 7 1 8 16 9 17 10 18 11 19 12 8 13
REMARK SMILES IDX 9 14 10 15 11 16 12 17 13 18 14 19
REMARK H PARENT
ROOT
ATOM      1  C   UNL     1       7.535   1.877   1.833  1.00  0.00     0.119 C 
ATOM      2  O   UNL     1       7.988   1.406   0.607  1.00  0.00    -0.430 OA
ATOM      3  C   UNL     1       6.974   0.710  -0.069  1.00  0.00     0.322 C 
ATOM      4  O   UNL     1       7.128   0.100  -1.169  1.00  0.00    -0.251 OA
ATOM      5  C   UNL     1       5.763   0.855   0.768  1.00  0.00     0.107 C 
ATOM      6  C   UNL     1       6.311   1.039   2.126  1.00  0.00     0.186 C 
ENDROOT
BRANCH   1   7
ATOM      7  C   UNL     1       8.046   2.839   2.585  1.00  0.00     0.013 C 
ATOM      8  C   UNL     1       7.104   3.737   3.278  1.00  0.00     0.039 C 
ENDBRANCH   1   7
BRANCH   6   9
ATOM      9  C   UNL     1       6.809  -0.149   2.819  1.00  0.00     0.317 C 
ATOM     10  O   UNL     1       7.710  -0.918   2.403  1.00  0.00    -0.251 OA
BRANCH   9  11
ATOM     11  O   UNL     1       6.244  -0.471   4.052  1.00  0.00    -0.468 OA
ATOM     12  C   UNL     1       7.077  -0.412   5.218  1.00  0.00     0.282 C 
ENDBRANCH   9  11
ENDBRANCH   6   9
BRANCH   5  13
ATOM     13  C   UNL     1       5.147   2.179   0.385  1.00  0.00    -0.004 C 
BRANCH  13  14
ATOM     14  C   UNL     1       5.358   2.715  -0.814  1.00  0.00     0.044 C 
BRANCH  14  15
ATOM     15  C   UNL     1       5.265   4.167  -1.042  1.00  0.00     0.152 C 
ATOM     16  C   UNL     1       6.411   5.032  -0.589  1.00  0.00     0.093 C 
ATOM     17  O   UNL     1       4.245   4.680  -1.607  1.00  0.00    -0.295 OA
ENDBRANCH  14  15
ENDBRANCH  13  14
ENDBRANCH   5  13
BRANCH   5  18
ATOM     18  C   UNL     1       4.725  -0.183   0.575  1.00  0.00     0.021 C 
ATOM     19  C   UNL     1       3.343   0.480   0.674  1.00  0.00     0.005 C 
ENDBRANCH   5  18
TORSDOF 7
ENDMDL
MODEL 6
REMARK VINA RESULT:      -4.3      2.333      3.908
REMARK SMILES CC=C1OC(=O)C(C=CC(C)=O)(CC)C1C(=O)OC
REMARK SMILES IDX 3 1 4 2 5 3 6 4 7 5 15 6 2 7 1 8 16 9 17 10 18 11 19 12 8 13
REMARK SMILES IDX 9 14 10 15 11 16 12 17 13 18 14 19
REMARK H PARENT
ROOT
ATOM      1  C   UNL     1       5.366   0.670   1.091  1.00  0.00     0.119 C 
ATOM      2  O   UNL     1       5.551   1.928   1.650  1.00  0.00    -0.430 OA
ATOM      3  C   UNL     1       6.873   2.365   1.477  1.00  0.00     0.322 C 
ATOM      4  O   UNL     1       7.348   3.436   1.958  1.00  0.00    -0.251 OA
ATOM      5  C   UNL     1       7.531   1.331   0.649  1.00  0.00     0.107 C 
ATOM      6  C   UNL     1       6.764   0.109   0.963  1.00  0.00     0.186 C 
ENDROOT
BRANCH   1   7
ATOM      7  C   UNL     1       4.231   0.082   0.744  1.00  0.00     0.013 C 
ATOM      8  C   UNL     1       3.659   0.427  -0.570  1.00  0.00     0.039 C 
ENDBRANCH   1   7
BRANCH   6   9
ATOM      9  C   UNL     1       7.038  -0.550   2.240  1.00  0.00     0.317 C 
ATOM     10  O   UNL     1       6.485  -0.286   3.336  1.00  0.00    -0.251 OA
BRANCH   9  11
ATOM     11  O   UNL     1       7.996  -1.563   2.260  1.00  0.00    -0.468 OA
ATOM     12  C   UNL     1       9.076  -1.458   3.197  1.00  0.00     0.282 C 
ENDBRANCH   9  11
ENDBRANCH   6   9
BRANCH   5  13
ATOM     13  C   UNL     1       7.201   1.672  -0.785  1.00  0.00    -0.004 C 
BRANCH  13  14
ATOM     14  C   UNL     1       7.119   2.935  -1.190  1.00  0.00     0.044 C 
BRANCH  14  15
ATOM     15  C   UNL     1       8.252   3.618  -1.836  1.00  0.00     0.152 C 
ATOM     16  C   UNL     1       8.870   2.977  -3.049  1.00  0.00     0.093 C 
ATOM     17  O   UNL     1       8.699   4.723  -1.384  1.00  0.00    -0.295 OA
ENDBRANCH  14  15
ENDBRANCH  13  14
ENDBRANCH   5  13
BRANCH   5  18
ATOM     18  C   UNL     1       9.006   1.268   0.755  1.00  0.00     0.021 C 
ATOM     19  C   UNL     1       9.537   0.313  -0.323  1.00  0.00     0.005 C 
ENDBRANCH   5  18
TORSDOF 7
ENDMDL
MODEL 7
REMARK VINA RESULT:      -4.2      1.216      1.467
REMARK SMILES CC=C1OC(=O)C(C=CC(C)=O)(CC)C1C(=O)OC
REMARK SMILES IDX 3 1 4 2 5 3 6 4 7 5 15 6 2 7 1 8 16 9 17 10 18 11 19 12 8 13
REMARK SMILES IDX 9 14 10 15 11 16 12 17 13 18 14 19
REMARK H PARENT
ROOT
ATOM      1  C   UNL     1       7.492   2.391   0.989  1.00  0.00     0.119 C 
ATOM      2  O   UNL     1       7.594   1.531  -0.097  1.00  0.00    -0.430 OA
ATOM      3  C   UNL     1       6.444   0.737  -0.220  1.00  0.00     0.322 C 
ATOM      4  O   UNL     1       6.296  -0.193  -1.068  1.00  0.00    -0.251 OA
ATOM      5  C   UNL     1       5.510   1.224   0.818  1.00  0.00     0.107 C 
ATOM      6  C   UNL     1       6.409   1.777   1.848  1.00  0.00     0.186 C 
ENDROOT
BRANCH   1   7
ATOM      7  C   UNL     1       8.177   3.497   1.231  1.00  0.00     0.013 C 
ATOM      8  C   UNL     1       9.535   3.351   1.784  1.00  0.00     0.039 C 
ENDBRANCH   1   7
BRANCH   6   9
ATOM      9  C   UNL     1       7.097   0.829   2.724  1.00  0.00     0.317 C 
ATOM     10  O   UNL     1       6.774   0.552   3.905  1.00  0.00    -0.251 OA
BRANCH   9  11
ATOM     11  O   UNL     1       8.215   0.166   2.219  1.00  0.00    -0.468 OA
ATOM     12  C   UNL     1       8.395  -1.216   2.556  1.00  0.00     0.282 C 
ENDBRANCH   9  11
ENDBRANCH   6   9
BRANCH   5  13
ATOM     13  C   UNL     1       4.792   2.406   0.213  1.00  0.00    -0.004 C 
BRANCH  13  14
ATOM     14  C   UNL     1       4.476   3.468   0.947  1.00  0.00     0.044 C 
BRANCH  14  15
ATOM     15  C   UNL     1       4.291   4.800   0.346  1.00  0.00     0.152 C 
ATOM     16  C   UNL     1       4.475   4.941  -1.140  1.00  0.00     0.093 C 
ATOM     17  O   UNL     1       3.983   5.808   1.063  1.00  0.00    -0.295 OA
ENDBRANCH  14  15
ENDBRANCH  13  14
ENDBRANCH   5  13
BRANCH   5  18
ATOM     18  C   UNL     1       4.474   0.258   1.250  1.00  0.00     0.021 C 
ATOM     19  C   UNL     1       3.332   0.270   0.224  1.00  0.00     0.005 C 
ENDBRANCH   5  18
TORSDOF 7
ENDMDL
MODEL 8
REMARK VINA RESULT:      -4.2      1.561      5.162
REMARK SMILES CC=C1OC(=O)C(C=CC(C)=O)(CC)C1C(=O)OC
REMARK SMILES IDX 3 1 4 2 5 3 6 4 7 5 15 6 2 7 1 8 16 9 17 10 18 11 19 12 8 13
REMARK SMILES IDX 9 14 10 15 11 16 12 17 13 18 14 19
REMARK H PARENT
ROOT
ATOM      1  C   UNL     1       5.274   1.007  -0.307  1.00  0.00     0.119 C 
ATOM      2  O   UNL     1       6.429   0.345  -0.705  1.00  0.00    -0.430 OA
ATOM      3  C   UNL     1       7.514   0.693   0.114  1.00  0.00     0.322 C 
ATOM      4  O   UNL     1       8.708   0.309  -0.068  1.00  0.00    -0.251 OA
ATOM      5  C   UNL     1       6.955   1.563   1.171  1.00  0.00     0.107 C 
ATOM      6  C   UNL     1       5.776   2.168   0.521  1.00  0.00     0.186 C 
ENDROOT
BRANCH   1   7
ATOM      7  C   UNL     1       4.015   0.702  -0.581  1.00  0.00     0.013 C 
ATOM      8  C   UNL     1       3.110   0.458   0.556  1.00  0.00     0.039 C 
ENDBRANCH   1   7
BRANCH   6   9
ATOM      9  C   UNL     1       6.012   3.252  -0.432  1.00  0.00     0.317 C 
ATOM     10  O   UNL     1       6.399   3.116  -1.618  1.00  0.00    -0.251 OA
BRANCH   9  11
ATOM     11  O   UNL     1       5.793   4.560  -0.000  1.00  0.00    -0.468 OA
ATOM     12  C   UNL     1       6.793   5.547  -0.289  1.00  0.00     0.282 C 
ENDBRANCH   9  11
ENDBRANCH   6   9
BRANCH   5  13
ATOM     13  C   UNL     1       6.415   0.636   2.233  1.00  0.00    -0.004 C 
BRANCH  13  14
ATOM     14  C   UNL     1       7.080  -0.457   2.594  1.00  0.00     0.044 C 
BRANCH  14  15
ATOM     15  C   UNL     1       7.923  -0.489   3.802  1.00  0.00     0.152 C 
ATOM     16  C   UNL     1       7.275  -0.199   5.128  1.00  0.00     0.093 C 
ATOM     17  O   UNL     1       9.167  -0.757   3.729  1.00  0.00    -0.295 OA
ENDBRANCH  14  15
ENDBRANCH  13  14
ENDBRANCH   5  13
BRANCH   5  18
ATOM     18  C   UNL     1       7.921   2.470   1.831  1.00  0.00     0.021 C 
ATOM     19  C   UNL     1       7.214   3.179   2.995  1.00  0.00     0.005 C 
ENDBRANCH   5  18
TORSDOF 7
ENDMDL
MODEL 9
REMARK VINA RESULT:      -4.1      1.984      4.690
REMARK SMILES CC=C1OC(=O)C(C=CC(C)=O)(CC)C1C(=O)OC
REMARK SMILES IDX 3 1 4 2 5 3 6 4 7 5 15 6 2 7 1 8 16 9 17 10 18 11 19 12 8 13
REMARK SMILES IDX 9 14 10 15 11 16 12 17 13 18 14 19
REMARK H PARENT
ROOT
ATOM      1  C   UNL     1       6.661   2.369   1.883  1.00  0.00     0.119 C 
ATOM      2  O   UNL     1       5.849   3.242   2.597  1.00  0.00    -0.430 OA
ATOM      3  C   UNL     1       5.269   4.197   1.749  1.00  0.00     0.322 C 
ATOM      4  O   UNL     1       4.553   5.167   2.137  1.00  0.00    -0.251 OA
ATOM      5  C   UNL     1       5.678   3.816   0.379  1.00  0.00     0.107 C 
ATOM      6  C   UNL     1       6.952   3.103   0.594  1.00  0.00     0.186 C 
ENDROOT
BRANCH   1   7
ATOM      7  C   UNL     1       7.089   1.168   2.236  1.00  0.00     0.013 C 
ATOM      8  C   UNL     1       7.405   0.947   3.659  1.00  0.00     0.039 C 
ENDBRANCH   1   7
BRANCH   6   9
ATOM      9  C   UNL     1       8.140   3.911   0.865  1.00  0.00     0.317 C 
ATOM     10  O   UNL     1       8.460   4.395   1.979  1.00  0.00    -0.251 OA
BRANCH   9  11
ATOM     11  O   UNL     1       9.005   4.180  -0.196  1.00  0.00    -0.468 OA
ATOM     12  C   UNL     1       9.368   5.544  -0.447  1.00  0.00     0.282 C 
ENDBRANCH   9  11
ENDBRANCH   6   9
BRANCH   5  13
ATOM     13  C   UNL     1       4.688   2.771  -0.076  1.00  0.00    -0.004 C 
BRANCH  13  14
ATOM     14  C   UNL     1       5.023   1.852  -0.977  1.00  0.00     0.044 C 
BRANCH  14  15
ATOM     15  C   UNL     1       4.836   0.413  -0.724  1.00  0.00     0.152 C 
ATOM     16  C   UNL     1       3.519  -0.044  -0.157  1.00  0.00     0.093 C 
ATOM     17  O   UNL     1       5.762  -0.425  -0.978  1.00  0.00    -0.295 OA
ENDBRANCH  14  15
ENDBRANCH  13  14
ENDBRANCH   5  13
BRANCH   5  18
ATOM     18  C   UNL     1       5.654   4.906  -0.622  1.00  0.00     0.021 C 
ATOM     19  C   UNL     1       4.207   5.112  -1.092  1.00  0.00     0.005 C 
ENDBRANCH   5  18
TORSDOF 7
ENDMDL
