MODEL 1
REMARK VINA RESULT:      39.2      0.000      0.000
REMARK SMILES CC1CN2CCCC2CN1C(=O)c1ccc(N=c2nc3c(c[nH]2)cc(C(=O)N(C)C)n3C2CCCC2)nc1
REMARK SMILES IDX 13 1 14 2 15 3 16 4 37 5 38 6 11 7 12 8 10 9 2 10 3 11 4 12
REMARK SMILES IDX 9 13 5 14 8 15 6 16 7 17 1 18 17 19 18 20 19 21 23 22 20 23
REMARK SMILES IDX 22 24 21 25 31 26 24 27 25 28 32 30 33 31 36 32 34 33 35 34
REMARK SMILES IDX 26 35 28 36 27 37 29 38 30 39
REMARK H PARENT 23 29
ROOT
ATOM      1  C   UNL     1       8.309   3.423   2.024  1.00  0.00     0.058 A 
ATOM      2  C   UNL     1       8.922   4.422   1.301  1.00  0.00     0.019 A 
ATOM      3  C   UNL     1       8.211   5.201   0.403  1.00  0.00     0.050 A 
ATOM      4  C   UNL     1       6.867   4.942   0.256  1.00  0.00     0.155 A 
ATOM      5  N   UNL     1       6.267   3.952   0.975  1.00  0.00    -0.236 NA
ATOM      6  C   UNL     1       6.942   3.188   1.849  1.00  0.00     0.127 A 
ENDROOT
BRANCH   1   7
ATOM      7  C   UNL     1       8.987   2.567   2.976  1.00  0.00     0.255 C 
ATOM      8  O   UNL     1       9.722   3.037   3.898  1.00  0.00    -0.269 OA
BRANCH   7   9
ATOM      9  N   UNL     1       8.883   1.134   2.951  1.00  0.00    -0.333 N 
ATOM     10  C   UNL     1       9.047   0.342   4.151  1.00  0.00     0.096 C 
ATOM     11  C   UNL     1       9.738  -0.970   3.871  1.00  0.00     0.109 C 
ATOM     12  N   UNL     1       9.293  -1.642   2.720  1.00  0.00    -0.297 NA
ATOM     13  C   UNL     1       8.615   0.518   1.694  1.00  0.00     0.139 C 
ATOM     14  C   UNL     1       8.386  -2.725   2.879  1.00  0.00     0.085 C 
ATOM     15  C   UNL     1       8.986  -0.910   1.556  1.00  0.00     0.076 C 
ATOM     16  C   UNL     1       7.235  -2.454   1.935  1.00  0.00     0.017 C 
ATOM     17  C   UNL     1       7.937  -1.722   0.801  1.00  0.00     0.022 C 
ATOM     18  C   UNL     1       7.708   0.165   4.811  1.00  0.00     0.032 C 
ENDBRANCH   7   9
ENDBRANCH   1   7
BRANCH   4  19
ATOM     19  N   UNL     1       6.021   5.668  -0.638  1.00  0.00    -0.193 NA
BRANCH  19  20
ATOM     20  C   UNL     1       4.922   5.126  -1.057  1.00  0.00     0.230 A 
ATOM     21  N   UNL     1       4.581   3.851  -0.717  1.00  0.00    -0.194 NA
ATOM     22  N   UNL     1       4.101   5.846  -1.853  1.00  0.00    -0.330 N 
ATOM     23  C   UNL     1       3.427   3.363  -1.194  1.00  0.00     0.146 A 
ATOM     24  C   UNL     1       2.945   5.378  -2.341  1.00  0.00     0.097 A 
ATOM     25  C   UNL     1       2.583   4.090  -2.006  1.00  0.00     0.036 A 
ATOM     26  N   UNL     1       2.838   2.148  -1.025  1.00  0.00    -0.318 N 
ATOM     27  C   UNL     1       1.494   3.339  -2.333  1.00  0.00     0.045 A 
ATOM     28  C   UNL     1       1.663   2.122  -1.711  1.00  0.00     0.109 A 
ATOM     29  H   UNL     1       4.379   6.823  -2.101  1.00  0.00     0.169 HD
BRANCH  26  30
ATOM     30  C   UNL     1       3.304   1.017  -0.266  1.00  0.00     0.089 C 
ATOM     31  C   UNL     1       4.474   1.342   0.620  1.00  0.00     0.025 C 
ATOM     32  C   UNL     1       3.804  -0.109  -1.108  1.00  0.00     0.025 C 
ATOM     33  C   UNL     1       5.176   0.006   0.824  1.00  0.00     0.002 C 
ATOM     34  C   UNL     1       4.446  -1.002  -0.033  1.00  0.00     0.002 C 
ENDBRANCH  26  30
BRANCH  28  35
ATOM     35  C   UNL     1       0.700   1.038  -1.817  1.00  0.00     0.270 C 
ATOM     36  N   UNL     1       0.617   0.158  -2.919  1.00  0.00    -0.343 N 
ATOM     37  O   UNL     1      -0.101   0.878  -0.863  1.00  0.00    -0.267 OA
ATOM     38  C   UNL     1      -0.375  -0.898  -2.938  1.00  0.00     0.146 C 
ATOM     39  C   UNL     1       1.556   0.365  -4.011  1.00  0.00     0.146 C 
ENDBRANCH  28  35
ENDBRANCH  19  20
ENDBRANCH   4  19
TORSDOF 6
ENDMDL
