MODEL 1
REMARK VINA RESULT:      -3.7      0.000      0.000
REMARK SMILES O=[N+]([O-])c1ccccc1OCCCCNCc1ccccc1
REMARK SMILES IDX 12 1 11 2 10 3 9 4 4 5 5 6 6 7 8 8 7 9 2 10 1 11 3 12 13 13
REMARK SMILES IDX 14 14 15 15 16 17 17 18 18 19 22 20 19 21 21 22 20 23
REMARK H PARENT 15 16
ROOT
ATOM      1  C   UNL     1       3.992   1.202  -1.136  1.00  0.00     0.043 C 
ENDROOT
BRANCH   1   2
ATOM      2  C   UNL     1       4.875   2.332  -0.737  1.00  0.00     0.230 C 
BRANCH   2   3
ATOM      3  O   UNL     1       6.212   2.176  -1.181  1.00  0.00    -0.487 OA
BRANCH   3   4
ATOM      4  C   UNL     1       7.168   2.971  -0.564  1.00  0.00     0.197 A 
ATOM      5  C   UNL     1       8.496   2.556  -0.687  1.00  0.00     0.310 A 
ATOM      6  C   UNL     1       9.495   3.290  -0.103  1.00  0.00     0.090 A 
ATOM      7  C   UNL     1       9.202   4.448   0.612  1.00  0.00     0.007 A 
ATOM      8  C   UNL     1       6.862   4.116   0.143  1.00  0.00     0.054 A 
ATOM      9  C   UNL     1       7.891   4.855   0.732  1.00  0.00     0.004 A 
BRANCH   5  10
ATOM     10  N   UNL     1       8.812   1.385  -1.409  1.00  0.00     0.066 N 
ATOM     11  O   UNL     1       8.827   0.245  -0.885  1.00  0.00    -0.258 OA
ATOM     12  O   UNL     1       9.116   1.489  -2.749  1.00  0.00    -0.258 OA
ENDBRANCH   5  10
ENDBRANCH   3   4
ENDBRANCH   2   3
ENDBRANCH   1   2
BRANCH   1  13
ATOM     13  C   UNL     1       3.971   0.199  -0.002  1.00  0.00     0.019 C 
BRANCH  13  14
ATOM     14  C   UNL     1       4.947  -0.922  -0.176  1.00  0.00     0.081 C 
BRANCH  14  15
ATOM     15  N   UNL     1       6.254  -0.634   0.331  1.00  0.00    -0.313 NA
ATOM     16  H   UNL     1       6.702   0.195  -0.080  1.00  0.00     0.123 HD
BRANCH  15  17
ATOM     17  C   UNL     1       6.349  -0.714   1.768  1.00  0.00     0.116 C 
BRANCH  17  18
ATOM     18  C   UNL     1       7.274   0.274   2.343  1.00  0.00    -0.034 A 
ATOM     19  C   UNL     1       8.607  -0.014   2.418  1.00  0.00     0.005 A 
ATOM     20  C   UNL     1       6.795   1.500   2.810  1.00  0.00     0.005 A 
ATOM     21  C   UNL     1       9.552   0.841   2.938  1.00  0.00     0.000 A 
ATOM     22  C   UNL     1       7.738   2.356   3.330  1.00  0.00     0.000 A 
ATOM     23  C   UNL     1       9.080   2.068   3.406  1.00  0.00     0.000 A 
ENDBRANCH  17  18
ENDBRANCH  15  17
ENDBRANCH  14  15
ENDBRANCH  13  14
ENDBRANCH   1  13
TORSDOF 9
ENDMDL
MODEL 2
REMARK VINA RESULT:      -3.4      2.602      4.409
REMARK SMILES O=[N+]([O-])c1ccccc1OCCCCNCc1ccccc1
REMARK SMILES IDX 12 1 11 2 10 3 9 4 4 5 5 6 6 7 8 8 7 9 2 10 1 11 3 12 13 13
REMARK SMILES IDX 14 14 15 15 16 17 17 18 18 19 22 20 19 21 21 22 20 23
REMARK H PARENT 15 16
ROOT
ATOM      1  C   UNL     1       5.061   0.415   1.166  1.00  0.00     0.043 C 
ENDROOT
BRANCH   1   2
ATOM      2  C   UNL     1       5.988  -0.608   1.723  1.00  0.00     0.230 C 
BRANCH   2   3
ATOM      3  O   UNL     1       7.120  -0.043   2.361  1.00  0.00    -0.487 OA
BRANCH   3   4
ATOM      4  C   UNL     1       7.778   0.971   1.677  1.00  0.00     0.197 A 
ATOM      5  C   UNL     1       7.951   2.175   2.365  1.00  0.00     0.310 A 
ATOM      6  C   UNL     1       8.591   3.220   1.753  1.00  0.00     0.090 A 
ATOM      7  C   UNL     1       9.071   3.099   0.453  1.00  0.00     0.007 A 
ATOM      8  C   UNL     1       8.247   0.836   0.387  1.00  0.00     0.054 A 
ATOM      9  C   UNL     1       8.898   1.911  -0.224  1.00  0.00     0.004 A 
BRANCH   5  10
ATOM     10  N   UNL     1       7.471   2.316   3.684  1.00  0.00     0.066 N 
ATOM     11  O   UNL     1       7.342   1.346   4.470  1.00  0.00    -0.258 OA
ATOM     12  O   UNL     1       7.128   3.571   4.140  1.00  0.00    -0.258 OA
ENDBRANCH   5  10
ENDBRANCH   3   4
ENDBRANCH   2   3
ENDBRANCH   1   2
BRANCH   1  13
ATOM     13  C   UNL     1       4.343  -0.196  -0.019  1.00  0.00     0.019 C 
BRANCH  13  14
ATOM     14  C   UNL     1       4.098   0.771  -1.134  1.00  0.00     0.081 C 
BRANCH  14  15
ATOM     15  N   UNL     1       5.128   1.754  -1.284  1.00  0.00    -0.313 NA
ATOM     16  H   UNL     1       5.894   1.482  -1.914  1.00  0.00     0.123 HD
BRANCH  15  17
ATOM     17  C   UNL     1       4.628   3.090  -1.495  1.00  0.00     0.116 C 
BRANCH  17  18
ATOM     18  C   UNL     1       5.104   4.053  -0.490  1.00  0.00    -0.034 A 
ATOM     19  C   UNL     1       4.539   4.063   0.754  1.00  0.00     0.005 A 
ATOM     20  C   UNL     1       6.126   4.951  -0.803  1.00  0.00     0.005 A 
ATOM     21  C   UNL     1       4.914   4.922   1.762  1.00  0.00     0.000 A 
ATOM     22  C   UNL     1       6.501   5.810   0.204  1.00  0.00     0.000 A 
ATOM     23  C   UNL     1       5.934   5.822   1.456  1.00  0.00     0.000 A 
ENDBRANCH  17  18
ENDBRANCH  15  17
ENDBRANCH  14  15
ENDBRANCH  13  14
ENDBRANCH   1  13
TORSDOF 9
ENDMDL
MODEL 3
REMARK VINA RESULT:      -3.3      1.689      2.256
REMARK SMILES O=[N+]([O-])c1ccccc1OCCCCNCc1ccccc1
REMARK SMILES IDX 12 1 11 2 10 3 9 4 4 5 5 6 6 7 8 8 7 9 2 10 1 11 3 12 13 13
REMARK SMILES IDX 14 14 15 15 16 17 17 18 18 19 22 20 19 21 21 22 20 23
REMARK H PARENT 15 16
ROOT
ATOM      1  C   UNL     1       4.381   1.183  -1.380  1.00  0.00     0.043 C 
ENDROOT
BRANCH   1   2
ATOM      2  C   UNL     1       4.494   2.645  -1.127  1.00  0.00     0.230 C 
BRANCH   2   3
ATOM      3  O   UNL     1       5.832   3.075  -0.943  1.00  0.00    -0.487 OA
BRANCH   3   4
ATOM      4  C   UNL     1       6.122   3.706   0.260  1.00  0.00     0.197 A 
ATOM      5  C   UNL     1       7.287   4.476   0.294  1.00  0.00     0.310 A 
ATOM      6  C   UNL     1       7.638   5.126   1.447  1.00  0.00     0.090 A 
ATOM      7  C   UNL     1       6.847   5.030   2.588  1.00  0.00     0.007 A 
ATOM      8  C   UNL     1       5.327   3.599   1.383  1.00  0.00     0.054 A 
ATOM      9  C   UNL     1       5.698   4.269   2.552  1.00  0.00     0.004 A 
BRANCH   5  10
ATOM     10  N   UNL     1       8.101   4.585  -0.853  1.00  0.00     0.066 N 
ATOM     11  O   UNL     1       8.077   5.583  -1.614  1.00  0.00    -0.258 OA
ATOM     12  O   UNL     1       8.966   3.556  -1.159  1.00  0.00    -0.258 OA
ENDBRANCH   5  10
ENDBRANCH   3   4
ENDBRANCH   2   3
ENDBRANCH   1   2
BRANCH   1  13
ATOM     13  C   UNL     1       4.340   0.475  -0.043  1.00  0.00     0.019 C 
BRANCH  13  14
ATOM     14  C   UNL     1       5.109  -0.809  -0.021  1.00  0.00     0.081 C 
BRANCH  14  15
ATOM     15  N   UNL     1       6.211  -0.807   0.892  1.00  0.00    -0.313 NA
ATOM     16  H   UNL     1       6.555  -1.741   1.153  1.00  0.00     0.123 HD
BRANCH  15  17
ATOM     17  C   UNL     1       7.247   0.135   0.548  1.00  0.00     0.116 C 
BRANCH  17  18
ATOM     18  C   UNL     1       7.808   0.832   1.716  1.00  0.00    -0.034 A 
ATOM     19  C   UNL     1       7.167   0.753   2.919  1.00  0.00     0.005 A 
ATOM     20  C   UNL     1       8.988   1.570   1.597  1.00  0.00     0.005 A 
ATOM     21  C   UNL     1       7.610   1.367   4.069  1.00  0.00     0.000 A 
ATOM     22  C   UNL     1       9.431   2.184   2.745  1.00  0.00     0.000 A 
ATOM     23  C   UNL     1       8.788   2.106   3.957  1.00  0.00     0.000 A 
ENDBRANCH  17  18
ENDBRANCH  15  17
ENDBRANCH  14  15
ENDBRANCH  13  14
ENDBRANCH   1  13
TORSDOF 9
ENDMDL
MODEL 4
REMARK VINA RESULT:      -3.2      1.989      4.269
REMARK SMILES O=[N+]([O-])c1ccccc1OCCCCNCc1ccccc1
REMARK SMILES IDX 12 1 11 2 10 3 9 4 4 5 5 6 6 7 8 8 7 9 2 10 1 11 3 12 13 13
REMARK SMILES IDX 14 14 15 15 16 17 17 18 18 19 22 20 19 21 21 22 20 23
REMARK H PARENT 15 16
ROOT
ATOM      1  C   UNL     1       9.425   2.022   1.499  1.00  0.00     0.043 C 
ENDROOT
BRANCH   1   2
ATOM      2  C   UNL     1       9.274   3.300   2.245  1.00  0.00     0.230 C 
BRANCH   2   3
ATOM      3  O   UNL     1       8.672   4.326   1.475  1.00  0.00    -0.487 OA
BRANCH   3   4
ATOM      4  C   UNL     1       7.290   4.281   1.350  1.00  0.00     0.197 A 
ATOM      5  C   UNL     1       6.788   4.081   0.062  1.00  0.00     0.310 A 
ATOM      6  C   UNL     1       5.434   4.026  -0.138  1.00  0.00     0.090 A 
ATOM      7  C   UNL     1       4.550   4.166   0.928  1.00  0.00     0.007 A 
ATOM      8  C   UNL     1       6.427   4.422   2.417  1.00  0.00     0.054 A 
ATOM      9  C   UNL     1       5.048   4.363   2.198  1.00  0.00     0.004 A 
BRANCH   5  10
ATOM     10  N   UNL     1       7.669   3.937  -1.031  1.00  0.00     0.066 N 
ATOM     11  O   UNL     1       8.330   4.893  -1.504  1.00  0.00    -0.258 OA
ATOM     12  O   UNL     1       7.817   2.695  -1.610  1.00  0.00    -0.258 OA
ENDBRANCH   5  10
ENDBRANCH   3   4
ENDBRANCH   2   3
ENDBRANCH   1   2
BRANCH   1  13
ATOM     13  C   UNL     1       9.740   0.928   2.496  1.00  0.00     0.019 C 
BRANCH  13  14
ATOM     14  C   UNL     1       8.563   0.066   2.832  1.00  0.00     0.081 C 
BRANCH  14  15
ATOM     15  N   UNL     1       7.299   0.692   2.588  1.00  0.00    -0.313 NA
ATOM     16  H   UNL     1       7.328   1.472   1.918  1.00  0.00     0.123 HD
BRANCH  15  17
ATOM     17  C   UNL     1       6.221  -0.241   2.371  1.00  0.00     0.116 C 
BRANCH  17  18
ATOM     18  C   UNL     1       5.388   0.095   1.206  1.00  0.00    -0.034 A 
ATOM     19  C   UNL     1       5.925   0.029  -0.048  1.00  0.00     0.005 A 
ATOM     20  C   UNL     1       4.056   0.479   1.379  1.00  0.00     0.005 A 
ATOM     21  C   UNL     1       5.230   0.322  -1.199  1.00  0.00     0.000 A 
ATOM     22  C   UNL     1       3.361   0.772   0.229  1.00  0.00     0.000 A 
ATOM     23  C   UNL     1       3.899   0.706  -1.033  1.00  0.00     0.000 A 
ENDBRANCH  17  18
ENDBRANCH  15  17
ENDBRANCH  14  15
ENDBRANCH  13  14
ENDBRANCH   1  13
TORSDOF 9
ENDMDL
MODEL 5
REMARK VINA RESULT:      -2.8      1.651      2.144
REMARK SMILES O=[N+]([O-])c1ccccc1OCCCCNCc1ccccc1
REMARK SMILES IDX 12 1 11 2 10 3 9 4 4 5 5 6 6 7 8 8 7 9 2 10 1 11 3 12 13 13
REMARK SMILES IDX 14 14 15 15 16 17 17 18 18 19 22 20 19 21 21 22 20 23
REMARK H PARENT 15 16
ROOT
ATOM      1  C   UNL     1       4.269   1.085  -0.865  1.00  0.00     0.043 C 
ENDROOT
BRANCH   1   2
ATOM      2  C   UNL     1       4.501   2.099   0.199  1.00  0.00     0.230 C 
BRANCH   2   3
ATOM      3  O   UNL     1       5.476   3.065  -0.156  1.00  0.00    -0.487 OA
BRANCH   3   4
ATOM      4  C   UNL     1       6.180   3.651   0.887  1.00  0.00     0.197 A 
ATOM      5  C   UNL     1       7.553   3.820   0.694  1.00  0.00     0.310 A 
ATOM      6  C   UNL     1       8.312   4.391   1.681  1.00  0.00     0.090 A 
ATOM      7  C   UNL     1       7.732   4.806   2.877  1.00  0.00     0.007 A 
ATOM      8  C   UNL     1       5.590   4.056   2.067  1.00  0.00     0.054 A 
ATOM      9  C   UNL     1       6.377   4.637   3.064  1.00  0.00     0.004 A 
BRANCH   5  10
ATOM     10  N   UNL     1       8.159   3.406  -0.511  1.00  0.00     0.066 N 
ATOM     11  O   UNL     1       8.856   2.367  -0.602  1.00  0.00    -0.258 OA
ATOM     12  O   UNL     1       7.981   4.170  -1.645  1.00  0.00    -0.258 OA
ENDBRANCH   5  10
ENDBRANCH   3   4
ENDBRANCH   2   3
ENDBRANCH   1   2
BRANCH   1  13
ATOM     13  C   UNL     1       5.301  -0.011  -0.705  1.00  0.00     0.019 C 
BRANCH  13  14
ATOM     14  C   UNL     1       5.277  -0.664   0.642  1.00  0.00     0.081 C 
BRANCH  14  15
ATOM     15  N   UNL     1       6.574  -1.010   1.140  1.00  0.00    -0.313 NA
ATOM     16  H   UNL     1       7.001  -1.831   0.693  1.00  0.00     0.123 HD
BRANCH  15  17
ATOM     17  C   UNL     1       7.459   0.119   1.285  1.00  0.00     0.116 C 
BRANCH  17  18
ATOM     18  C   UNL     1       8.023   0.245   2.637  1.00  0.00    -0.034 A 
ATOM     19  C   UNL     1       7.499   1.161   3.504  1.00  0.00     0.005 A 
ATOM     20  C   UNL     1       9.088  -0.567   3.035  1.00  0.00     0.005 A 
ATOM     21  C   UNL     1       7.954   1.354   4.788  1.00  0.00     0.000 A 
ATOM     22  C   UNL     1       9.544  -0.375   4.318  1.00  0.00     0.000 A 
ATOM     23  C   UNL     1       9.017   0.546   5.192  1.00  0.00     0.000 A 
ENDBRANCH  17  18
ENDBRANCH  15  17
ENDBRANCH  14  15
ENDBRANCH  13  14
ENDBRANCH   1  13
TORSDOF 9
ENDMDL
MODEL 6
REMARK VINA RESULT:      -2.7      1.939      2.775
REMARK SMILES O=[N+]([O-])c1ccccc1OCCCCNCc1ccccc1
REMARK SMILES IDX 12 1 11 2 10 3 9 4 4 5 5 6 6 7 8 8 7 9 2 10 1 11 3 12 13 13
REMARK SMILES IDX 14 14 15 15 16 17 17 18 18 19 22 20 19 21 21 22 20 23
REMARK H PARENT 15 16
ROOT
ATOM      1  C   UNL     1       4.970   1.324  -0.994  1.00  0.00     0.043 C 
ENDROOT
BRANCH   1   2
ATOM      2  C   UNL     1       5.225   2.547  -0.185  1.00  0.00     0.230 C 
BRANCH   2   3
ATOM      3  O   UNL     1       6.578   2.678   0.214  1.00  0.00    -0.487 OA
BRANCH   3   4
ATOM      4  C   UNL     1       7.505   2.907  -0.795  1.00  0.00     0.197 A 
ATOM      5  C   UNL     1       7.811   4.242  -1.068  1.00  0.00     0.310 A 
ATOM      6  C   UNL     1       8.717   4.544  -2.051  1.00  0.00     0.090 A 
ATOM      7  C   UNL     1       9.336   3.535  -2.783  1.00  0.00     0.007 A 
ATOM      8  C   UNL     1       8.109   1.895  -1.513  1.00  0.00     0.054 A 
ATOM      9  C   UNL     1       9.031   2.218  -2.512  1.00  0.00     0.004 A 
BRANCH   5  10
ATOM     10  N   UNL     1       7.194   5.278  -0.336  1.00  0.00     0.066 N 
ATOM     11  O   UNL     1       7.662   5.726   0.739  1.00  0.00    -0.258 OA
ATOM     12  O   UNL     1       6.025   5.829  -0.815  1.00  0.00    -0.258 OA
ENDBRANCH   5  10
ENDBRANCH   3   4
ENDBRANCH   2   3
ENDBRANCH   1   2
BRANCH   1  13
ATOM     13  C   UNL     1       3.711   0.667  -0.471  1.00  0.00     0.019 C 
BRANCH  13  14
ATOM     14  C   UNL     1       3.836   0.165   0.934  1.00  0.00     0.081 C 
BRANCH  14  15
ATOM     15  N   UNL     1       5.040  -0.568   1.181  1.00  0.00    -0.313 NA
ATOM     16  H   UNL     1       5.728  -0.536   0.417  1.00  0.00     0.123 HD
BRANCH  15  17
ATOM     17  C   UNL     1       5.595  -0.347   2.493  1.00  0.00     0.116 C 
BRANCH  17  18
ATOM     18  C   UNL     1       6.946   0.233   2.462  1.00  0.00    -0.034 A 
ATOM     19  C   UNL     1       7.259   1.257   3.309  1.00  0.00     0.005 A 
ATOM     20  C   UNL     1       7.904  -0.260   1.573  1.00  0.00     0.005 A 
ATOM     21  C   UNL     1       8.493   1.866   3.358  1.00  0.00     0.000 A 
ATOM     22  C   UNL     1       9.137   0.348   1.621  1.00  0.00     0.000 A 
ATOM     23  C   UNL     1       9.455   1.379   2.473  1.00  0.00     0.000 A 
ENDBRANCH  17  18
ENDBRANCH  15  17
ENDBRANCH  14  15
ENDBRANCH  13  14
ENDBRANCH   1  13
TORSDOF 9
ENDMDL
MODEL 7
REMARK VINA RESULT:      -2.6      1.337      1.860
REMARK SMILES O=[N+]([O-])c1ccccc1OCCCCNCc1ccccc1
REMARK SMILES IDX 12 1 11 2 10 3 9 4 4 5 5 6 6 7 8 8 7 9 2 10 1 11 3 12 13 13
REMARK SMILES IDX 14 14 15 15 16 17 17 18 18 19 22 20 19 21 21 22 20 23
REMARK H PARENT 15 16
ROOT
ATOM      1  C   UNL     1       5.202   1.794  -0.860  1.00  0.00     0.043 C 
ENDROOT
BRANCH   1   2
ATOM      2  C   UNL     1       5.013   3.217  -1.250  1.00  0.00     0.230 C 
BRANCH   2   3
ATOM      3  O   UNL     1       6.213   3.970  -1.209  1.00  0.00    -0.487 OA
BRANCH   3   4
ATOM      4  C   UNL     1       7.000   3.823  -0.075  1.00  0.00     0.197 A 
ATOM      5  C   UNL     1       8.240   3.204  -0.254  1.00  0.00     0.310 A 
ATOM      6  C   UNL     1       9.070   3.025   0.821  1.00  0.00     0.090 A 
ATOM      7  C   UNL     1       8.695   3.452   2.091  1.00  0.00     0.007 A 
ATOM      8  C   UNL     1       6.613   4.252   1.178  1.00  0.00     0.054 A 
ATOM      9  C   UNL     1       7.471   4.063   2.264  1.00  0.00     0.004 A 
BRANCH   5  10
ATOM     10  N   UNL     1       8.638   2.765  -1.534  1.00  0.00     0.066 N 
ATOM     11  O   UNL     1       9.091   3.540  -2.410  1.00  0.00    -0.258 OA
ATOM     12  O   UNL     1       8.529   1.427  -1.845  1.00  0.00    -0.258 OA
ENDBRANCH   5  10
ENDBRANCH   3   4
ENDBRANCH   2   3
ENDBRANCH   1   2
BRANCH   1  13
ATOM     13  C   UNL     1       4.164   1.450   0.187  1.00  0.00     0.019 C 
BRANCH  13  14
ATOM     14  C   UNL     1       4.121  -0.005   0.533  1.00  0.00     0.081 C 
BRANCH  14  15
ATOM     15  N   UNL     1       4.820  -0.334   1.738  1.00  0.00    -0.313 NA
ATOM     16  H   UNL     1       5.234  -1.275   1.753  1.00  0.00     0.123 HD
BRANCH  15  17
ATOM     17  C   UNL     1       5.697   0.712   2.203  1.00  0.00     0.116 C 
BRANCH  17  18
ATOM     18  C   UNL     1       7.069   0.248   2.457  1.00  0.00    -0.034 A 
ATOM     19  C   UNL     1       7.553   0.241   3.734  1.00  0.00     0.005 A 
ATOM     20  C   UNL     1       7.874  -0.184   1.400  1.00  0.00     0.005 A 
ATOM     21  C   UNL     1       8.820  -0.174   4.076  1.00  0.00     0.000 A 
ATOM     22  C   UNL     1       9.141  -0.599   1.740  1.00  0.00     0.000 A 
ATOM     23  C   UNL     1       9.629  -0.607   3.025  1.00  0.00     0.000 A 
ENDBRANCH  17  18
ENDBRANCH  15  17
ENDBRANCH  14  15
ENDBRANCH  13  14
ENDBRANCH   1  13
TORSDOF 9
ENDMDL
MODEL 8
REMARK VINA RESULT:      -2.4      1.971      3.020
REMARK SMILES O=[N+]([O-])c1ccccc1OCCCCNCc1ccccc1
REMARK SMILES IDX 12 1 11 2 10 3 9 4 4 5 5 6 6 7 8 8 7 9 2 10 1 11 3 12 13 13
REMARK SMILES IDX 14 14 15 15 16 17 17 18 18 19 22 20 19 21 21 22 20 23
REMARK H PARENT 15 16
ROOT
ATOM      1  C   UNL     1       3.929   0.265  -0.904  1.00  0.00     0.043 C 
ENDROOT
BRANCH   1   2
ATOM      2  C   UNL     1       3.832   1.697  -0.510  1.00  0.00     0.230 C 
BRANCH   2   3
ATOM      3  O   UNL     1       4.703   2.537  -1.247  1.00  0.00    -0.487 OA
BRANCH   3   4
ATOM      4  C   UNL     1       5.916   2.854  -0.650  1.00  0.00     0.197 A 
ATOM      5  C   UNL     1       5.894   3.880   0.298  1.00  0.00     0.310 A 
ATOM      6  C   UNL     1       7.053   4.247   0.928  1.00  0.00     0.090 A 
ATOM      7  C   UNL     1       8.256   3.610   0.637  1.00  0.00     0.007 A 
ATOM      8  C   UNL     1       7.100   2.212  -0.950  1.00  0.00     0.054 A 
ATOM      9  C   UNL     1       8.274   2.597  -0.298  1.00  0.00     0.004 A 
BRANCH   5  10
ATOM     10  N   UNL     1       4.684   4.538   0.606  1.00  0.00     0.066 N 
ATOM     11  O   UNL     1       4.030   5.193  -0.240  1.00  0.00    -0.258 OA
ATOM     12  O   UNL     1       4.192   4.462   1.891  1.00  0.00    -0.258 OA
ENDBRANCH   5  10
ENDBRANCH   3   4
ENDBRANCH   2   3
ENDBRANCH   1   2
BRANCH   1  13
ATOM     13  C   UNL     1       4.297  -0.538   0.325  1.00  0.00     0.019 C 
BRANCH  13  14
ATOM     14  C   UNL     1       5.509  -0.023   1.037  1.00  0.00     0.081 C 
BRANCH  14  15
ATOM     15  N   UNL     1       6.488  -1.031   1.313  1.00  0.00    -0.313 NA
ATOM     16  H   UNL     1       7.285  -1.046   0.663  1.00  0.00     0.123 HD
BRANCH  15  17
ATOM     17  C   UNL     1       6.852  -1.119   2.705  1.00  0.00     0.116 C 
BRANCH  17  18
ATOM     18  C   UNL     1       7.751  -0.039   3.140  1.00  0.00    -0.034 A 
ATOM     19  C   UNL     1       7.385   0.762   4.184  1.00  0.00     0.005 A 
ATOM     20  C   UNL     1       8.970   0.168   2.492  1.00  0.00     0.005 A 
ATOM     21  C   UNL     1       8.153   1.797   4.666  1.00  0.00     0.000 A 
ATOM     22  C   UNL     1       9.739   1.202   2.973  1.00  0.00     0.000 A 
ATOM     23  C   UNL     1       9.373   2.009   4.023  1.00  0.00     0.000 A 
ENDBRANCH  17  18
ENDBRANCH  15  17
ENDBRANCH  14  15
ENDBRANCH  13  14
ENDBRANCH   1  13
TORSDOF 9
ENDMDL
MODEL 9
REMARK VINA RESULT:      -2.4      2.444      3.332
REMARK SMILES O=[N+]([O-])c1ccccc1OCCCCNCc1ccccc1
REMARK SMILES IDX 12 1 11 2 10 3 9 4 4 5 5 6 6 7 8 8 7 9 2 10 1 11 3 12 13 13
REMARK SMILES IDX 14 14 15 15 16 17 17 18 18 19 22 20 19 21 21 22 20 23
REMARK H PARENT 15 16
ROOT
ATOM      1  C   UNL     1       4.433   0.433   0.823  1.00  0.00     0.043 C 
ENDROOT
BRANCH   1   2
ATOM      2  C   UNL     1       4.478   1.649  -0.034  1.00  0.00     0.230 C 
BRANCH   2   3
ATOM      3  O   UNL     1       4.645   2.845   0.706  1.00  0.00    -0.487 OA
BRANCH   3   4
ATOM      4  C   UNL     1       5.700   3.667   0.330  1.00  0.00     0.197 A 
ATOM      5  C   UNL     1       6.023   4.705   1.207  1.00  0.00     0.310 A 
ATOM      6  C   UNL     1       7.052   5.557   0.902  1.00  0.00     0.090 A 
ATOM      7  C   UNL     1       7.781   5.401  -0.273  1.00  0.00     0.007 A 
ATOM      8  C   UNL     1       6.412   3.500  -0.839  1.00  0.00     0.054 A 
ATOM      9  C   UNL     1       7.460   4.376  -1.137  1.00  0.00     0.004 A 
BRANCH   5  10
ATOM     10  N   UNL     1       5.296   4.879   2.404  1.00  0.00     0.066 N 
ATOM     11  O   UNL     1       5.806   4.727   3.540  1.00  0.00    -0.258 OA
ATOM     12  O   UNL     1       3.965   5.231   2.331  1.00  0.00    -0.258 OA
ENDBRANCH   5  10
ENDBRANCH   3   4
ENDBRANCH   2   3
ENDBRANCH   1   2
BRANCH   1  13
ATOM     13  C   UNL     1       5.798  -0.221   0.785  1.00  0.00     0.019 C 
BRANCH  13  14
ATOM     14  C   UNL     1       6.508  -0.050  -0.522  1.00  0.00     0.081 C 
BRANCH  14  15
ATOM     15  N   UNL     1       7.889   0.304  -0.387  1.00  0.00    -0.313 NA
ATOM     16  H   UNL     1       8.118   1.262  -0.683  1.00  0.00     0.123 HD
BRANCH  15  17
ATOM     17  C   UNL     1       8.466  -0.084   0.876  1.00  0.00     0.116 C 
BRANCH  17  18
ATOM     18  C   UNL     1       8.747   1.056   1.761  1.00  0.00    -0.034 A 
ATOM     19  C   UNL     1       9.429   2.135   1.274  1.00  0.00     0.005 A 
ATOM     20  C   UNL     1       8.320   1.039   3.090  1.00  0.00     0.005 A 
ATOM     21  C   UNL     1       9.740   3.250   2.018  1.00  0.00     0.000 A 
ATOM     22  C   UNL     1       8.630   2.153   3.836  1.00  0.00     0.000 A 
ATOM     23  C   UNL     1       9.316   3.239   3.348  1.00  0.00     0.000 A 
ENDBRANCH  17  18
ENDBRANCH  15  17
ENDBRANCH  14  15
ENDBRANCH  13  14
ENDBRANCH   1  13
TORSDOF 9
ENDMDL
