MODEL 1
REMARK VINA RESULT:      -3.5      0.000      0.000
REMARK SMILES CCCCc1ccc(Cn2c(C(=O)O)cc3ccccc32)cc1
REMARK SMILES IDX 5 1 6 2 7 3 8 4 22 5 23 6 4 7 3 8 2 9 1 10 9 11 10 12 11 13
REMARK SMILES IDX 21 14 15 15 20 16 16 17 19 18 17 19 18 20 12 21 13 22 14 23
REMARK H PARENT 14 24
ROOT
ATOM      1  C   UNL     1       4.225   1.327  -0.327  1.00  0.00    -0.048 A 
ATOM      2  C   UNL     1       4.093   2.059   0.832  1.00  0.00     0.004 A 
ATOM      3  C   UNL     1       4.722   3.297   0.956  1.00  0.00     0.006 A 
ATOM      4  C   UNL     1       5.490   3.851  -0.032  1.00  0.00    -0.028 A 
ATOM      5  C   UNL     1       5.616   3.095  -1.205  1.00  0.00     0.006 A 
ATOM      6  C   UNL     1       4.985   1.856  -1.328  1.00  0.00     0.004 A 
ENDROOT
BRANCH   1   7
ATOM      7  C   UNL     1       3.536   0.014  -0.413  1.00  0.00     0.035 C 
BRANCH   7   8
ATOM      8  C   UNL     1       4.608  -1.069  -0.251  1.00  0.00     0.004 C 
BRANCH   8   9
ATOM      9  C   UNL     1       5.905  -0.492   0.239  1.00  0.00    -0.003 C 
ATOM     10  C   UNL     1       6.221  -1.011   1.636  1.00  0.00     0.004 C 
ENDBRANCH   8   9
ENDBRANCH   7   8
ENDBRANCH   1   7
BRANCH   4  11
ATOM     11  C   UNL     1       6.185   5.155   0.053  1.00  0.00     0.158 C 
BRANCH  11  12
ATOM     12  N   UNL     1       7.445   5.106   0.765  1.00  0.00    -0.331 N 
ATOM     13  C   UNL     1       8.648   4.817   0.243  1.00  0.00     0.128 A 
ATOM     14  C   UNL     1       7.599   5.309   2.097  1.00  0.00     0.049 A 
ATOM     15  C   UNL     1       9.598   4.830   1.272  1.00  0.00     0.044 A 
ATOM     16  C   UNL     1       6.762   5.634   3.144  1.00  0.00     0.027 A 
ATOM     17  C   UNL     1       8.942   5.141   2.440  1.00  0.00     0.000 A 
ATOM     18  C   UNL     1       7.196   5.786   4.445  1.00  0.00     0.002 A 
ATOM     19  C   UNL     1       9.392   5.289   3.736  1.00  0.00     0.010 A 
ATOM     20  C   UNL     1       8.525   5.614   4.756  1.00  0.00     0.001 A 
BRANCH  13  21
ATOM     21  C   UNL     1       9.042   4.568  -1.138  1.00  0.00     0.352 C 
ATOM     22  O   UNL     1       8.810   5.427  -2.060  1.00  0.00    -0.245 OA
BRANCH  21  23
ATOM     23  O   UNL     1       9.680   3.416  -1.565  1.00  0.00    -0.477 OA
ATOM     24  H   UNL     1      10.419   2.934  -1.055  1.00  0.00     0.297 HD
ENDBRANCH  21  23
ENDBRANCH  13  21
ENDBRANCH  11  12
ENDBRANCH   4  11
TORSDOF 7
ENDMDL
MODEL 2
REMARK VINA RESULT:      -3.3      1.791      5.846
REMARK SMILES CCCCc1ccc(Cn2c(C(=O)O)cc3ccccc32)cc1
REMARK SMILES IDX 5 1 6 2 7 3 8 4 22 5 23 6 4 7 3 8 2 9 1 10 9 11 10 12 11 13
REMARK SMILES IDX 21 14 15 15 20 16 16 17 19 18 17 19 18 20 12 21 13 22 14 23
REMARK H PARENT 14 24
ROOT
ATOM      1  C   UNL     1       8.361   5.236   2.589  1.00  0.00    -0.048 A 
ATOM      2  C   UNL     1       6.993   5.123   2.483  1.00  0.00     0.004 A 
ATOM      3  C   UNL     1       6.421   4.554   1.344  1.00  0.00     0.006 A 
ATOM      4  C   UNL     1       7.157   4.087   0.290  1.00  0.00    -0.028 A 
ATOM      5  C   UNL     1       8.547   4.208   0.411  1.00  0.00     0.006 A 
ATOM      6  C   UNL     1       9.118   4.777   1.551  1.00  0.00     0.004 A 
ENDROOT
BRANCH   1   7
ATOM      7  C   UNL     1       8.923   5.847   3.820  1.00  0.00     0.035 C 
BRANCH   7   8
ATOM      8  C   UNL     1       8.417   5.020   5.006  1.00  0.00     0.004 C 
BRANCH   8   9
ATOM      9  C   UNL     1       9.255   3.792   5.218  1.00  0.00    -0.003 C 
ATOM     10  C   UNL     1       8.406   2.537   5.059  1.00  0.00     0.004 C 
ENDBRANCH   8   9
ENDBRANCH   7   8
ENDBRANCH   1   7
BRANCH   4  11
ATOM     11  C   UNL     1       6.600   3.484  -0.943  1.00  0.00     0.158 C 
BRANCH  11  12
ATOM     12  N   UNL     1       6.365   2.059  -0.849  1.00  0.00    -0.331 N 
ATOM     13  C   UNL     1       7.207   1.083  -1.225  1.00  0.00     0.128 A 
ATOM     14  C   UNL     1       5.225   1.482  -0.395  1.00  0.00     0.049 A 
ATOM     15  C   UNL     1       6.585  -0.153  -1.010  1.00  0.00     0.044 A 
ATOM     16  C   UNL     1       4.029   1.941   0.118  1.00  0.00     0.027 A 
ATOM     17  C   UNL     1       5.338   0.094  -0.487  1.00  0.00     0.000 A 
ATOM     18  C   UNL     1       3.004   1.108   0.517  1.00  0.00     0.002 A 
ATOM     19  C   UNL     1       4.323  -0.753  -0.093  1.00  0.00     0.010 A 
ATOM     20  C   UNL     1       3.142  -0.257   0.415  1.00  0.00     0.001 A 
BRANCH  13  21
ATOM     21  C   UNL     1       8.573   1.159  -1.729  1.00  0.00     0.352 C 
ATOM     22  O   UNL     1       8.820   1.556  -2.921  1.00  0.00    -0.245 OA
BRANCH  21  23
ATOM     23  O   UNL     1       9.691   0.815  -0.988  1.00  0.00    -0.477 OA
ATOM     24  H   UNL     1      10.638   0.745  -1.357  1.00  0.00     0.297 HD
ENDBRANCH  21  23
ENDBRANCH  13  21
ENDBRANCH  11  12
ENDBRANCH   4  11
TORSDOF 7
ENDMDL
MODEL 3
REMARK VINA RESULT:      -2.8      2.470      6.317
REMARK SMILES CCCCc1ccc(Cn2c(C(=O)O)cc3ccccc32)cc1
REMARK SMILES IDX 5 1 6 2 7 3 8 4 22 5 23 6 4 7 3 8 2 9 1 10 9 11 10 12 11 13
REMARK SMILES IDX 21 14 15 15 20 16 16 17 19 18 17 19 18 20 12 21 13 22 14 23
REMARK H PARENT 14 24
ROOT
ATOM      1  C   UNL     1       8.221   3.451   4.269  1.00  0.00    -0.048 A 
ATOM      2  C   UNL     1       8.718   3.616   2.995  1.00  0.00     0.004 A 
ATOM      3  C   UNL     1       8.643   2.574   2.071  1.00  0.00     0.006 A 
ATOM      4  C   UNL     1       8.089   1.356   2.357  1.00  0.00    -0.028 A 
ATOM      5  C   UNL     1       7.588   1.202   3.657  1.00  0.00     0.006 A 
ATOM      6  C   UNL     1       7.663   2.246   4.580  1.00  0.00     0.004 A 
ENDROOT
BRANCH   1   7
ATOM      7  C   UNL     1       8.324   4.588   5.217  1.00  0.00     0.035 C 
BRANCH   7   8
ATOM      8  C   UNL     1       7.873   5.845   4.465  1.00  0.00     0.004 C 
BRANCH   8   9
ATOM      9  C   UNL     1       6.674   5.571   3.605  1.00  0.00    -0.003 C 
ATOM     10  C   UNL     1       5.394   5.708   4.421  1.00  0.00     0.004 C 
ENDBRANCH   8   9
ENDBRANCH   7   8
ENDBRANCH   1   7
BRANCH   4  11
ATOM     11  C   UNL     1       7.993   0.217   1.417  1.00  0.00     0.158 C 
BRANCH  11  12
ATOM     12  N   UNL     1       7.059   0.426   0.331  1.00  0.00    -0.331 N 
ATOM     13  C   UNL     1       7.363   0.780  -0.928  1.00  0.00     0.128 A 
ATOM     14  C   UNL     1       5.710   0.333   0.431  1.00  0.00     0.049 A 
ATOM     15  C   UNL     1       6.173   0.923  -1.654  1.00  0.00     0.044 A 
ATOM     16  C   UNL     1       4.819   0.014   1.435  1.00  0.00     0.027 A 
ATOM     17  C   UNL     1       5.131   0.641  -0.802  1.00  0.00     0.000 A 
ATOM     18  C   UNL     1       3.451  -0.006   1.258  1.00  0.00     0.002 A 
ATOM     19  C   UNL     1       3.765   0.626  -0.995  1.00  0.00     0.010 A 
ATOM     20  C   UNL     1       2.906   0.302   0.033  1.00  0.00     0.001 A 
BRANCH  13  21
ATOM     21  C   UNL     1       8.659   0.961  -1.570  1.00  0.00     0.352 C 
ATOM     22  O   UNL     1       9.740   1.008  -0.885  1.00  0.00    -0.245 OA
BRANCH  21  23
ATOM     23  O   UNL     1       8.832   1.097  -2.937  1.00  0.00    -0.477 OA
ATOM     24  H   UNL     1       9.622   0.728  -3.466  1.00  0.00     0.297 HD
ENDBRANCH  21  23
ENDBRANCH  13  21
ENDBRANCH  11  12
ENDBRANCH   4  11
TORSDOF 7
ENDMDL
MODEL 4
REMARK VINA RESULT:      -0.9      2.652      5.918
REMARK SMILES CCCCc1ccc(Cn2c(C(=O)O)cc3ccccc32)cc1
REMARK SMILES IDX 5 1 6 2 7 3 8 4 22 5 23 6 4 7 3 8 2 9 1 10 9 11 10 12 11 13
REMARK SMILES IDX 21 14 15 15 20 16 16 17 19 18 17 19 18 20 12 21 13 22 14 23
REMARK H PARENT 14 24
ROOT
ATOM      1  C   UNL     1       7.045   4.793   3.907  1.00  0.00    -0.048 A 
ATOM      2  C   UNL     1       5.848   5.301   3.454  1.00  0.00     0.004 A 
ATOM      3  C   UNL     1       5.285   4.823   2.270  1.00  0.00     0.006 A 
ATOM      4  C   UNL     1       5.865   3.849   1.504  1.00  0.00    -0.028 A 
ATOM      5  C   UNL     1       7.083   3.342   1.977  1.00  0.00     0.006 A 
ATOM      6  C   UNL     1       7.645   3.822   3.161  1.00  0.00     0.004 A 
ENDROOT
BRANCH   1   7
ATOM      7  C   UNL     1       7.605   5.334   5.171  1.00  0.00     0.035 C 
BRANCH   7   8
ATOM      8  C   UNL     1       9.113   5.504   4.961  1.00  0.00     0.004 C 
BRANCH   8   9
ATOM      9  C   UNL     1       9.740   4.245   4.435  1.00  0.00    -0.003 C 
ATOM     10  C   UNL     1       9.093   3.023   5.076  1.00  0.00     0.004 C 
ENDBRANCH   8   9
ENDBRANCH   7   8
ENDBRANCH   1   7
BRANCH   4  11
ATOM     11  C   UNL     1       5.314   3.314   0.238  1.00  0.00     0.158 C 
BRANCH  11  12
ATOM     12  N   UNL     1       6.208   2.414  -0.460  1.00  0.00    -0.331 N 
ATOM     13  C   UNL     1       6.141   1.073  -0.475  1.00  0.00     0.128 A 
ATOM     14  C   UNL     1       7.290   2.792  -1.184  1.00  0.00     0.049 A 
ATOM     15  C   UNL     1       7.215   0.578  -1.227  1.00  0.00     0.044 A 
ATOM     16  C   UNL     1       7.868   3.995  -1.532  1.00  0.00     0.027 A 
ATOM     17  C   UNL     1       7.939   1.657  -1.675  1.00  0.00     0.000 A 
ATOM     18  C   UNL     1       9.005   4.096  -2.307  1.00  0.00     0.002 A 
ATOM     19  C   UNL     1       9.077   1.742  -2.451  1.00  0.00     0.010 A 
ATOM     20  C   UNL     1       9.625   2.963  -2.778  1.00  0.00     0.001 A 
BRANCH  13  21
ATOM     21  C   UNL     1       5.150   0.172   0.099  1.00  0.00     0.352 C 
ATOM     22  O   UNL     1       3.937   0.169  -0.312  1.00  0.00    -0.245 OA
BRANCH  21  23
ATOM     23  O   UNL     1       5.421  -0.733   1.112  1.00  0.00    -0.477 OA
ATOM     24  H   UNL     1       6.138  -1.455   1.074  1.00  0.00     0.297 HD
ENDBRANCH  21  23
ENDBRANCH  13  21
ENDBRANCH  11  12
ENDBRANCH   4  11
TORSDOF 7
ENDMDL
