MODEL 1
REMARK VINA RESULT:       3.5      0.000      0.000
REMARK SMILES CCOc1cccc2c(=NCCCCNCc3ccc(OCc4ccccn4)cc3)cc[nH]c12
REMARK SMILES IDX 13 1 12 2 11 3 10 4 9 5 4 6 5 7 34 8 6 9 33 10 8 11 7 12
REMARK SMILES IDX 32 13 31 14 3 16 2 17 1 18 14 19 15 20 16 22 17 23 18 24
REMARK SMILES IDX 30 25 19 26 29 27 20 28 21 29 22 30 23 31 24 32 28 33 25 34
REMARK SMILES IDX 27 35 26 36
REMARK H PARENT 33 15 15 21
ROOT
ATOM      1  C   UNL     1       2.869   0.972  -0.041  1.00  0.00     0.017 C 
ENDROOT
BRANCH   1   2
ATOM      2  C   UNL     1       3.614   0.885  -1.323  1.00  0.00     0.025 C 
BRANCH   2   3
ATOM      3  C   UNL     1       5.010   0.291  -0.997  1.00  0.00     0.143 C 
BRANCH   3   4
ATOM      4  N   UNL     1       5.257   0.604   0.378  1.00  0.00    -0.285 NA
BRANCH   4   5
ATOM      5  C   UNL     1       6.365   0.920   0.915  1.00  0.00     0.068 A 
ATOM      6  C   UNL     1       7.956   0.252   4.177  1.00  0.00     0.143 A 
ATOM      7  C   UNL     1       6.976  -0.513   4.774  1.00  0.00     0.049 A 
ATOM      8  C   UNL     1       7.751   0.726   2.898  1.00  0.00     0.090 A 
ATOM      9  C   UNL     1       5.778  -0.820   4.116  1.00  0.00     0.005 A 
ATOM     10  N   UNL     1       8.713   1.481   2.300  1.00  0.00    -0.358 N 
ATOM     11  C   UNL     1       6.587   0.448   2.213  1.00  0.00     0.027 A 
ATOM     12  C   UNL     1       5.604  -0.331   2.836  1.00  0.00     0.013 A 
ATOM     13  C   UNL     1       8.502   1.939   1.048  1.00  0.00     0.085 A 
ATOM     14  C   UNL     1       7.359   1.677   0.351  1.00  0.00     0.046 A 
ATOM     15  H   UNL     1       9.600   1.689   2.829  1.00  0.00     0.166 HD
BRANCH   6  16
ATOM     16  O   UNL     1       9.142   0.533   4.885  1.00  0.00    -0.492 OA
BRANCH  16  17
ATOM     17  C   UNL     1       9.721   1.823   4.855  1.00  0.00     0.226 C 
ATOM     18  C   UNL     1       8.715   2.906   4.654  1.00  0.00     0.049 C 
ENDBRANCH  16  17
ENDBRANCH   6  16
ENDBRANCH   4   5
ENDBRANCH   3   4
ENDBRANCH   2   3
ENDBRANCH   1   2
BRANCH   1  19
ATOM     19  C   UNL     1       3.634   1.414   1.137  1.00  0.00     0.081 C 
BRANCH  19  20
ATOM     20  N   UNL     1       2.984   2.135   2.127  1.00  0.00    -0.313 NA
ATOM     21  H   UNL     1       2.271   1.625   2.674  1.00  0.00     0.123 HD
BRANCH  20  22
ATOM     22  C   UNL     1       2.792   3.520   2.054  1.00  0.00     0.116 C 
BRANCH  22  23
ATOM     23  C   UNL     1       4.166   4.159   1.897  1.00  0.00    -0.034 A 
ATOM     24  C   UNL     1       4.689   4.223   0.629  1.00  0.00     0.009 A 
ATOM     25  C   UNL     1       4.856   4.653   2.963  1.00  0.00     0.009 A 
ATOM     26  C   UNL     1       5.909   4.783   0.434  1.00  0.00     0.047 A 
ATOM     27  C   UNL     1       6.091   5.215   2.730  1.00  0.00     0.047 A 
ATOM     28  C   UNL     1       6.681   5.316   1.496  1.00  0.00     0.119 A 
BRANCH  28  29
ATOM     29  O   UNL     1       7.863   5.838   1.165  1.00  0.00    -0.487 OA
BRANCH  29  30
ATOM     30  C   UNL     1       8.948   5.556   0.404  1.00  0.00     0.285 C 
BRANCH  30  31
ATOM     31  C   UNL     1       8.754   5.021  -0.951  1.00  0.00     0.078 A 
ATOM     32  C   UNL     1       7.666   4.304  -1.379  1.00  0.00     0.027 A 
ATOM     33  N   UNL     1       9.740   5.223  -1.845  1.00  0.00    -0.258 NA
ATOM     34  C   UNL     1       7.593   3.816  -2.671  1.00  0.00     0.004 A 
ATOM     35  C   UNL     1       9.733   4.780  -3.105  1.00  0.00     0.111 A 
ATOM     36  C   UNL     1       8.625   4.048  -3.550  1.00  0.00     0.020 A 
ENDBRANCH  30  31
ENDBRANCH  29  30
ENDBRANCH  28  29
ENDBRANCH  22  23
ENDBRANCH  20  22
ENDBRANCH  19  20
ENDBRANCH   1  19
TORSDOF 13
ENDMDL
MODEL 2
REMARK VINA RESULT:       4.4      1.957      5.352
REMARK SMILES CCOc1cccc2c(=NCCCCNCc3ccc(OCc4ccccn4)cc3)cc[nH]c12
REMARK SMILES IDX 13 1 12 2 11 3 10 4 9 5 4 6 5 7 34 8 6 9 33 10 8 11 7 12
REMARK SMILES IDX 32 13 31 14 3 16 2 17 1 18 14 19 15 20 16 22 17 23 18 24
REMARK SMILES IDX 30 25 19 26 29 27 20 28 21 29 22 30 23 31 24 32 28 33 25 34
REMARK SMILES IDX 27 35 26 36
REMARK H PARENT 33 15 15 21
ROOT
ATOM      1  C   UNL     1       8.731   4.541   2.549  1.00  0.00     0.017 C 
ENDROOT
BRANCH   1   2
ATOM      2  C   UNL     1       7.548   5.376   2.881  1.00  0.00     0.025 C 
BRANCH   2   3
ATOM      3  C   UNL     1       6.291   4.500   2.640  1.00  0.00     0.143 C 
BRANCH   3   4
ATOM      4  N   UNL     1       6.682   3.511   1.681  1.00  0.00    -0.285 NA
BRANCH   4   5
ATOM      5  C   UNL     1       6.834   2.263   1.869  1.00  0.00     0.068 A 
ATOM      6  C   UNL     1       9.024   0.206   4.011  1.00  0.00     0.143 A 
ATOM      7  C   UNL     1       9.739   1.196   4.652  1.00  0.00     0.049 A 
ATOM      8  C   UNL     1       8.063   0.562   3.089  1.00  0.00     0.090 A 
ATOM      9  C   UNL     1       9.513   2.554   4.389  1.00  0.00     0.005 A 
ATOM     10  N   UNL     1       7.352  -0.408   2.453  1.00  0.00    -0.358 N 
ATOM     11  C   UNL     1       7.807   1.886   2.801  1.00  0.00     0.027 A 
ATOM     12  C   UNL     1       8.543   2.877   3.462  1.00  0.00     0.013 A 
ATOM     13  C   UNL     1       6.412  -0.049   1.553  1.00  0.00     0.085 A 
ATOM     14  C   UNL     1       6.142   1.254   1.252  1.00  0.00     0.046 A 
ATOM     15  H   UNL     1       7.552  -1.419   2.678  1.00  0.00     0.166 HD
BRANCH   6  16
ATOM     16  O   UNL     1       9.293  -1.145   4.311  1.00  0.00    -0.492 OA
BRANCH  16  17
ATOM     17  C   UNL     1       8.480  -1.866   5.216  1.00  0.00     0.226 C 
ATOM     18  C   UNL     1       7.087  -2.061   4.717  1.00  0.00     0.049 C 
ENDBRANCH  16  17
ENDBRANCH   6  16
ENDBRANCH   4   5
ENDBRANCH   3   4
ENDBRANCH   2   3
ENDBRANCH   1   2
BRANCH   1  19
ATOM     19  C   UNL     1       9.574   5.007   1.436  1.00  0.00     0.081 C 
BRANCH  19  20
ATOM     20  N   UNL     1       9.369   4.475   0.171  1.00  0.00    -0.313 NA
ATOM     21  H   UNL     1      10.006   3.714  -0.116  1.00  0.00     0.123 HD
BRANCH  20  22
ATOM     22  C   UNL     1       8.820   5.214  -0.882  1.00  0.00     0.116 C 
BRANCH  22  23
ATOM     23  C   UNL     1       7.522   4.531  -1.288  1.00  0.00    -0.034 A 
ATOM     24  C   UNL     1       6.410   5.325  -1.427  1.00  0.00     0.009 A 
ATOM     25  C   UNL     1       7.452   3.188  -1.508  1.00  0.00     0.009 A 
ATOM     26  C   UNL     1       5.227   4.766  -1.788  1.00  0.00     0.047 A 
ATOM     27  C   UNL     1       6.237   2.654  -1.872  1.00  0.00     0.047 A 
ATOM     28  C   UNL     1       5.083   3.377  -2.032  1.00  0.00     0.119 A 
BRANCH  28  29
ATOM     29  O   UNL     1       3.865   2.961  -2.380  1.00  0.00    -0.487 OA
BRANCH  29  30
ATOM     30  C   UNL     1       3.012   1.935  -2.149  1.00  0.00     0.285 C 
BRANCH  30  31
ATOM     31  C   UNL     1       3.235   1.064  -0.985  1.00  0.00     0.078 A 
ATOM     32  C   UNL     1       4.055  -0.035  -0.956  1.00  0.00     0.027 A 
ATOM     33  N   UNL     1       2.556   1.348   0.141  1.00  0.00    -0.258 NA
ATOM     34  C   UNL     1       4.174  -0.809   0.184  1.00  0.00     0.004 A 
ATOM     35  C   UNL     1       2.624   0.643   1.274  1.00  0.00     0.111 A 
ATOM     36  C   UNL     1       3.460  -0.480   1.313  1.00  0.00     0.020 A 
ENDBRANCH  30  31
ENDBRANCH  29  30
ENDBRANCH  28  29
ENDBRANCH  22  23
ENDBRANCH  20  22
ENDBRANCH  19  20
ENDBRANCH   1  19
TORSDOF 13
ENDMDL
MODEL 3
REMARK VINA RESULT:       5.5      2.058      5.490
REMARK SMILES CCOc1cccc2c(=NCCCCNCc3ccc(OCc4ccccn4)cc3)cc[nH]c12
REMARK SMILES IDX 13 1 12 2 11 3 10 4 9 5 4 6 5 7 34 8 6 9 33 10 8 11 7 12
REMARK SMILES IDX 32 13 31 14 3 16 2 17 1 18 14 19 15 20 16 22 17 23 18 24
REMARK SMILES IDX 30 25 19 26 29 27 20 28 21 29 22 30 23 31 24 32 28 33 25 34
REMARK SMILES IDX 27 35 26 36
REMARK H PARENT 33 15 15 21
ROOT
ATOM      1  C   UNL     1       7.345  -1.579   2.849  1.00  0.00     0.017 C 
ENDROOT
BRANCH   1   2
ATOM      2  C   UNL     1       7.443  -0.194   3.376  1.00  0.00     0.025 C 
BRANCH   2   3
ATOM      3  C   UNL     1       8.853  -0.048   4.007  1.00  0.00     0.143 C 
BRANCH   3   4
ATOM      4  N   UNL     1       9.739   0.243   2.921  1.00  0.00    -0.285 NA
BRANCH   4   5
ATOM      5  C   UNL     1       9.533   1.022   1.937  1.00  0.00     0.068 A 
ATOM      6  C   UNL     1       9.276   4.680   1.526  1.00  0.00     0.143 A 
ATOM      7  C   UNL     1       9.477   5.086   2.829  1.00  0.00     0.049 A 
ATOM      8  C   UNL     1       9.294   3.332   1.233  1.00  0.00     0.090 A 
ATOM      9  C   UNL     1       9.699   4.166   3.861  1.00  0.00     0.005 A 
ATOM     10  N   UNL     1       9.098   2.922  -0.049  1.00  0.00    -0.358 N 
ATOM     11  C   UNL     1       9.510   2.392   2.218  1.00  0.00     0.027 A 
ATOM     12  C   UNL     1       9.712   2.824   3.535  1.00  0.00     0.013 A 
ATOM     13  C   UNL     1       9.119   1.601  -0.325  1.00  0.00     0.085 A 
ATOM     14  C   UNL     1       9.330   0.652   0.633  1.00  0.00     0.046 A 
ATOM     15  H   UNL     1       8.934   3.646  -0.798  1.00  0.00     0.166 HD
BRANCH   6  16
ATOM     16  O   UNL     1       9.055   5.648   0.526  1.00  0.00    -0.492 OA
BRANCH  16  17
ATOM     17  C   UNL     1       7.886   5.621  -0.270  1.00  0.00     0.226 C 
ATOM     18  C   UNL     1       7.738   4.353  -1.043  1.00  0.00     0.049 C 
ENDBRANCH  16  17
ENDBRANCH   6  16
ENDBRANCH   4   5
ENDBRANCH   3   4
ENDBRANCH   2   3
ENDBRANCH   1   2
BRANCH   1  19
ATOM     19  C   UNL     1       7.484  -1.740   1.392  1.00  0.00     0.081 C 
BRANCH  19  20
ATOM     20  N   UNL     1       6.698  -2.681   0.743  1.00  0.00    -0.313 NA
ATOM     21  H   UNL     1       7.178  -3.537   0.421  1.00  0.00     0.123 HD
BRANCH  20  22
ATOM     22  C   UNL     1       5.549  -2.340   0.020  1.00  0.00     0.116 C 
BRANCH  22  23
ATOM     23  C   UNL     1       5.402  -0.826   0.090  1.00  0.00    -0.034 A 
ATOM     24  C   UNL     1       4.590  -0.229  -0.843  1.00  0.00     0.009 A 
ATOM     25  C   UNL     1       6.044  -0.083   1.034  1.00  0.00     0.009 A 
ATOM     26  C   UNL     1       4.424   1.118  -0.825  1.00  0.00     0.047 A 
ATOM     27  C   UNL     1       5.854   1.280   1.024  1.00  0.00     0.047 A 
ATOM     28  C   UNL     1       5.061   1.951   0.128  1.00  0.00     0.119 A 
BRANCH  28  29
ATOM     29  O   UNL     1       4.811   3.258   0.033  1.00  0.00    -0.487 OA
BRANCH  29  30
ATOM     30  C   UNL     1       5.241   4.438   0.539  1.00  0.00     0.285 C 
BRANCH  30  31
ATOM     31  C   UNL     1       5.339   4.600   1.997  1.00  0.00     0.078 A 
ATOM     32  C   UNL     1       6.189   5.455   2.650  1.00  0.00     0.027 A 
ATOM     33  N   UNL     1       4.550   3.823   2.762  1.00  0.00    -0.258 NA
ATOM     34  C   UNL     1       6.226   5.511   4.032  1.00  0.00     0.004 A 
ATOM     35  C   UNL     1       4.536   3.826   4.098  1.00  0.00     0.111 A 
ATOM     36  C   UNL     1       5.401   4.698   4.772  1.00  0.00     0.020 A 
ENDBRANCH  30  31
ENDBRANCH  29  30
ENDBRANCH  28  29
ENDBRANCH  22  23
ENDBRANCH  20  22
ENDBRANCH  19  20
ENDBRANCH   1  19
TORSDOF 13
ENDMDL
MODEL 4
REMARK VINA RESULT:       5.5      2.231      6.265
REMARK SMILES CCOc1cccc2c(=NCCCCNCc3ccc(OCc4ccccn4)cc3)cc[nH]c12
REMARK SMILES IDX 13 1 12 2 11 3 10 4 9 5 4 6 5 7 34 8 6 9 33 10 8 11 7 12
REMARK SMILES IDX 32 13 31 14 3 16 2 17 1 18 14 19 15 20 16 22 17 23 18 24
REMARK SMILES IDX 30 25 19 26 29 27 20 28 21 29 22 30 23 31 24 32 28 33 25 34
REMARK SMILES IDX 27 35 26 36
REMARK H PARENT 33 15 15 21
ROOT
ATOM      1  C   UNL     1       8.394   5.761   0.660  1.00  0.00     0.017 C 
ENDROOT
BRANCH   1   2
ATOM      2  C   UNL     1       9.375   5.255  -0.333  1.00  0.00     0.025 C 
BRANCH   2   3
ATOM      3  C   UNL     1       9.732   3.803   0.081  1.00  0.00     0.143 C 
BRANCH   3   4
ATOM      4  N   UNL     1       8.925   2.952  -0.739  1.00  0.00    -0.285 NA
BRANCH   4   5
ATOM      5  C   UNL     1       7.695   3.093  -1.031  1.00  0.00     0.068 A 
ATOM      6  C   UNL     1       4.519   2.555   0.768  1.00  0.00     0.143 A 
ATOM      7  C   UNL     1       4.999   2.112   1.983  1.00  0.00     0.049 A 
ATOM      8  C   UNL     1       5.415   2.879  -0.229  1.00  0.00     0.090 A 
ATOM      9  C   UNL     1       6.372   1.983   2.229  1.00  0.00     0.005 A 
ATOM     10  N   UNL     1       4.951   3.318  -1.431  1.00  0.00    -0.358 N 
ATOM     11  C   UNL     1       6.775   2.768  -0.030  1.00  0.00     0.027 A 
ATOM     12  C   UNL     1       7.243   2.316   1.210  1.00  0.00     0.013 A 
ATOM     13  C   UNL     1       5.836   3.633  -2.400  1.00  0.00     0.085 A 
ATOM     14  C   UNL     1       7.185   3.530  -2.225  1.00  0.00     0.046 A 
ATOM     15  H   UNL     1       3.910   3.402  -1.576  1.00  0.00     0.166 HD
BRANCH   6  16
ATOM     16  O   UNL     1       3.128   2.666   0.573  1.00  0.00    -0.492 OA
BRANCH  16  17
ATOM     17  C   UNL     1       2.265   1.577   0.843  1.00  0.00     0.226 C 
ATOM     18  C   UNL     1       2.199   0.596  -0.279  1.00  0.00     0.049 C 
ENDBRANCH  16  17
ENDBRANCH   6  16
ENDBRANCH   4   5
ENDBRANCH   3   4
ENDBRANCH   2   3
ENDBRANCH   1   2
BRANCH   1  19
ATOM     19  C   UNL     1       8.846   5.824   2.059  1.00  0.00     0.081 C 
BRANCH  19  20
ATOM     20  N   UNL     1       8.575   4.755   2.901  1.00  0.00    -0.313 NA
ATOM     21  H   UNL     1       7.657   4.765   3.374  1.00  0.00     0.123 HD
BRANCH  20  22
ATOM     22  C   UNL     1       9.577   4.043   3.570  1.00  0.00     0.116 C 
BRANCH  22  23
ATOM     23  C   UNL     1       9.120   2.593   3.660  1.00  0.00    -0.034 A 
ATOM     24  C   UNL     1       9.729   1.689   2.825  1.00  0.00     0.009 A 
ATOM     25  C   UNL     1       8.149   2.197   4.529  1.00  0.00     0.009 A 
ATOM     26  C   UNL     1       9.361   0.384   2.865  1.00  0.00     0.047 A 
ATOM     27  C   UNL     1       7.799   0.866   4.544  1.00  0.00     0.047 A 
ATOM     28  C   UNL     1       8.358  -0.097   3.744  1.00  0.00     0.119 A 
BRANCH  28  29
ATOM     29  O   UNL     1       8.093  -1.403   3.681  1.00  0.00    -0.487 OA
BRANCH  29  30
ATOM     30  C   UNL     1       7.596  -2.323   2.820  1.00  0.00     0.285 C 
BRANCH  30  31
ATOM     31  C   UNL     1       6.667  -1.890   1.766  1.00  0.00     0.078 A 
ATOM     32  C   UNL     1       5.934  -0.731   1.774  1.00  0.00     0.027 A 
ATOM     33  N   UNL     1       6.495  -2.712   0.715  1.00  0.00    -0.258 NA
ATOM     34  C   UNL     1       5.061  -0.429   0.745  1.00  0.00     0.004 A 
ATOM     35  C   UNL     1       5.669  -2.481  -0.310  1.00  0.00     0.111 A 
ATOM     36  C   UNL     1       4.918  -1.299  -0.310  1.00  0.00     0.020 A 
ENDBRANCH  30  31
ENDBRANCH  29  30
ENDBRANCH  28  29
ENDBRANCH  22  23
ENDBRANCH  20  22
ENDBRANCH  19  20
ENDBRANCH   1  19
TORSDOF 13
ENDMDL
