MODEL 1
REMARK VINA RESULT:      -3.9      0.000      0.000
REMARK SMILES O=C(CCc1nc(=O)c2ccccc2[nH]1)NC(CCc1ccccc1)C(=O)O
REMARK SMILES IDX 1 1 2 2 16 3 3 5 4 6 5 7 6 8 15 9 7 10 14 11 9 12 13 13
REMARK SMILES IDX 10 14 12 15 11 16 8 18 17 19 18 20 19 21 20 22 21 23 25 24
REMARK SMILES IDX 22 25 24 26 23 27 26 28 27 29 28 30
REMARK H PARENT 16 4 15 17 28 31
ROOT
ATOM      1  O   UNL     1       5.462  -1.312  -0.364  1.00  0.00    -0.275 OA
ATOM      2  C   UNL     1       4.743  -0.518   0.276  1.00  0.00     0.221 C 
ATOM      3  N   UNL     1       4.990  -0.257   1.660  1.00  0.00    -0.343 N 
ATOM      4  H   UNL     1       4.423   0.393   2.234  1.00  0.00     0.164 HD
ENDROOT
BRANCH   2   5
ATOM      5  C   UNL     1       3.591   0.210  -0.332  1.00  0.00     0.108 C 
BRANCH   5   6
ATOM      6  C   UNL     1       3.194   1.354   0.594  1.00  0.00     0.085 C 
BRANCH   6   7
ATOM      7  C   UNL     1       4.153   2.468   0.418  1.00  0.00     0.111 A 
ATOM      8  N   UNL     1       3.953   3.299  -0.624  1.00  0.00    -0.196 NA
ATOM      9  N   UNL     1       5.170   2.608   1.288  1.00  0.00    -0.343 N 
ATOM     10  C   UNL     1       4.775   4.346  -0.869  1.00  0.00     0.280 A 
ATOM     11  C   UNL     1       6.022   3.637   1.091  1.00  0.00     0.052 A 
ATOM     12  C   UNL     1       5.831   4.498   0.026  1.00  0.00     0.065 A 
ATOM     13  C   UNL     1       7.087   3.836   1.950  1.00  0.00     0.027 A 
ATOM     14  C   UNL     1       6.705   5.564  -0.185  1.00  0.00     0.016 A 
ATOM     15  C   UNL     1       7.969   4.881   1.767  1.00  0.00     0.002 A 
ATOM     16  C   UNL     1       7.757   5.733   0.692  1.00  0.00     0.001 A 
ATOM     17  H   UNL     1       5.328   1.973   2.089  1.00  0.00     0.168 HD
ATOM     18  O   UNL     1       4.616   5.136  -1.829  1.00  0.00    -0.267 OA
ENDBRANCH   6   7
ENDBRANCH   5   6
ENDBRANCH   2   5
BRANCH   3  19
ATOM     19  C   UNL     1       6.122  -0.955   2.306  1.00  0.00     0.192 C 
BRANCH  19  20
ATOM     20  C   UNL     1       7.280  -0.841   1.401  1.00  0.00     0.042 C 
BRANCH  20  21
ATOM     21  C   UNL     1       8.192   0.320   1.565  1.00  0.00     0.038 C 
BRANCH  21  22
ATOM     22  C   UNL     1       8.541   1.032   0.320  1.00  0.00    -0.048 A 
ATOM     23  C   UNL     1       9.482   1.998   0.178  1.00  0.00     0.004 A 
ATOM     24  C   UNL     1       7.837   0.674  -0.841  1.00  0.00     0.004 A 
ATOM     25  C   UNL     1       9.739   2.605  -1.057  1.00  0.00     0.000 A 
ATOM     26  C   UNL     1       8.087   1.266  -2.054  1.00  0.00     0.000 A 
ATOM     27  C   UNL     1       9.055   2.258  -2.188  1.00  0.00     0.000 A 
ENDBRANCH  21  22
ENDBRANCH  20  21
ENDBRANCH  19  20
BRANCH  19  28
ATOM     28  C   UNL     1       6.340  -0.353   3.650  1.00  0.00     0.326 C 
ATOM     29  O   UNL     1       6.159  -0.919   4.731  1.00  0.00    -0.250 OA
BRANCH  28  30
ATOM     30  O   UNL     1       6.798   0.985   3.725  1.00  0.00    -0.480 OA
ATOM     31  H   UNL     1       7.683   1.216   4.152  1.00  0.00     0.296 HD
ENDBRANCH  28  30
ENDBRANCH  19  28
ENDBRANCH   3  19
TORSDOF 9
ENDMDL
MODEL 2
REMARK VINA RESULT:      -2.6      2.447      5.746
REMARK SMILES O=C(CCc1nc(=O)c2ccccc2[nH]1)NC(CCc1ccccc1)C(=O)O
REMARK SMILES IDX 1 1 2 2 16 3 3 5 4 6 5 7 6 8 15 9 7 10 14 11 9 12 13 13
REMARK SMILES IDX 10 14 12 15 11 16 8 18 17 19 18 20 19 21 20 22 21 23 25 24
REMARK SMILES IDX 22 25 24 26 23 27 26 28 27 29 28 30
REMARK H PARENT 16 4 15 17 28 31
ROOT
ATOM      1  O   UNL     1       7.824   0.879  -2.481  1.00  0.00    -0.275 OA
ATOM      2  C   UNL     1       8.642   1.220  -1.602  1.00  0.00     0.221 C 
ATOM      3  N   UNL     1       8.826   2.599  -1.267  1.00  0.00    -0.343 N 
ATOM      4  H   UNL     1       9.490   2.931  -0.546  1.00  0.00     0.164 HD
ENDROOT
BRANCH   2   5
ATOM      5  C   UNL     1       9.477   0.244  -0.844  1.00  0.00     0.108 C 
BRANCH   5   6
ATOM      6  C   UNL     1       8.566  -0.576   0.063  1.00  0.00     0.085 C 
BRANCH   6   7
ATOM      7  C   UNL     1       8.501   0.076   1.391  1.00  0.00     0.111 A 
ATOM      8  N   UNL     1       8.375  -0.724   2.469  1.00  0.00    -0.196 NA
ATOM      9  N   UNL     1       8.570   1.417   1.474  1.00  0.00    -0.343 N 
ATOM     10  C   UNL     1       8.307  -0.223   3.724  1.00  0.00     0.280 A 
ATOM     11  C   UNL     1       8.507   1.971   2.703  1.00  0.00     0.052 A 
ATOM     12  C   UNL     1       8.377   1.164   3.819  1.00  0.00     0.065 A 
ATOM     13  C   UNL     1       8.573   3.344   2.855  1.00  0.00     0.027 A 
ATOM     14  C   UNL     1       8.312   1.727   5.092  1.00  0.00     0.016 A 
ATOM     15  C   UNL     1       8.511   3.930   4.102  1.00  0.00     0.002 A 
ATOM     16  C   UNL     1       8.380   3.101   5.208  1.00  0.00     0.001 A 
ATOM     17  H   UNL     1       8.667   2.036   0.650  1.00  0.00     0.168 HD
ATOM     18  O   UNL     1       8.189  -0.941   4.746  1.00  0.00    -0.267 OA
ENDBRANCH   6   7
ENDBRANCH   5   6
ENDBRANCH   2   5
BRANCH   3  19
ATOM     19  C   UNL     1       8.019   3.602  -1.992  1.00  0.00     0.192 C 
BRANCH  19  20
ATOM     20  C   UNL     1       6.664   3.045  -2.146  1.00  0.00     0.042 C 
BRANCH  20  21
ATOM     21  C   UNL     1       5.678   3.274  -1.058  1.00  0.00     0.038 C 
BRANCH  21  22
ATOM     22  C   UNL     1       5.048   2.057  -0.508  1.00  0.00    -0.048 A 
ATOM     23  C   UNL     1       4.266   1.177  -1.181  1.00  0.00     0.004 A 
ATOM     24  C   UNL     1       5.284   1.770   0.846  1.00  0.00     0.004 A 
ATOM     25  C   UNL     1       3.723   0.046  -0.562  1.00  0.00     0.000 A 
ATOM     26  C   UNL     1       4.754   0.661   1.457  1.00  0.00     0.000 A 
ATOM     27  C   UNL     1       3.951  -0.235   0.756  1.00  0.00     0.000 A 
ENDBRANCH  21  22
ENDBRANCH  20  21
ENDBRANCH  19  20
BRANCH  19  28
ATOM     28  C   UNL     1       8.067   4.882  -1.231  1.00  0.00     0.326 C 
ATOM     29  O   UNL     1       8.919   5.191  -0.395  1.00  0.00    -0.250 OA
BRANCH  28  30
ATOM     30  O   UNL     1       7.059   5.847  -1.470  1.00  0.00    -0.480 OA
ATOM     31  H   UNL     1       7.003   6.345  -2.346  1.00  0.00     0.296 HD
ENDBRANCH  28  30
ENDBRANCH  19  28
ENDBRANCH   3  19
TORSDOF 9
ENDMDL
MODEL 3
REMARK VINA RESULT:      -2.6      2.238      4.254
REMARK SMILES O=C(CCc1nc(=O)c2ccccc2[nH]1)NC(CCc1ccccc1)C(=O)O
REMARK SMILES IDX 1 1 2 2 16 3 3 5 4 6 5 7 6 8 15 9 7 10 14 11 9 12 13 13
REMARK SMILES IDX 10 14 12 15 11 16 8 18 17 19 18 20 19 21 20 22 21 23 25 24
REMARK SMILES IDX 22 25 24 26 23 27 26 28 27 29 28 30
REMARK H PARENT 16 4 15 17 28 31
ROOT
ATOM      1  O   UNL     1       7.677   0.456  -0.166  1.00  0.00    -0.275 OA
ATOM      2  C   UNL     1       8.785   0.945   0.137  1.00  0.00     0.221 C 
ATOM      3  N   UNL     1       9.217   0.993   1.500  1.00  0.00    -0.343 N 
ATOM      4  H   UNL     1      10.125   1.387   1.802  1.00  0.00     0.164 HD
ENDROOT
BRANCH   2   5
ATOM      5  C   UNL     1       9.730   1.509  -0.870  1.00  0.00     0.108 C 
BRANCH   5   6
ATOM      6  C   UNL     1       9.178   2.843  -1.363  1.00  0.00     0.085 C 
BRANCH   6   7
ATOM      7  C   UNL     1       8.567   3.560  -0.219  1.00  0.00     0.111 A 
ATOM      8  N   UNL     1       9.375   3.891   0.808  1.00  0.00    -0.196 NA
ATOM      9  N   UNL     1       7.254   3.850  -0.247  1.00  0.00    -0.343 N 
ATOM     10  C   UNL     1       8.911   4.547   1.896  1.00  0.00     0.280 A 
ATOM     11  C   UNL     1       6.737   4.504   0.815  1.00  0.00     0.052 A 
ATOM     12  C   UNL     1       7.553   4.850   1.877  1.00  0.00     0.065 A 
ATOM     13  C   UNL     1       5.394   4.831   0.848  1.00  0.00     0.027 A 
ATOM     14  C   UNL     1       7.028   5.526   2.978  1.00  0.00     0.016 A 
ATOM     15  C   UNL     1       4.846   5.499   1.923  1.00  0.00     0.002 A 
ATOM     16  C   UNL     1       5.683   5.837   2.978  1.00  0.00     0.001 A 
ATOM     17  H   UNL     1       6.629   3.598  -1.032  1.00  0.00     0.168 HD
ATOM     18  O   UNL     1       9.637   4.868   2.868  1.00  0.00    -0.267 OA
ENDBRANCH   6   7
ENDBRANCH   5   6
ENDBRANCH   2   5
BRANCH   3  19
ATOM     19  C   UNL     1       8.314   0.445   2.533  1.00  0.00     0.192 C 
BRANCH  19  20
ATOM     20  C   UNL     1       7.016   1.128   2.386  1.00  0.00     0.042 C 
BRANCH  20  21
ATOM     21  C   UNL     1       5.788   0.298   2.288  1.00  0.00     0.038 C 
BRANCH  21  22
ATOM     22  C   UNL     1       4.935   0.566   1.113  1.00  0.00    -0.048 A 
ATOM     23  C   UNL     1       5.236   1.365   0.060  1.00  0.00     0.004 A 
ATOM     24  C   UNL     1       3.686  -0.074   1.070  1.00  0.00     0.004 A 
ATOM     25  C   UNL     1       4.354   1.543  -1.011  1.00  0.00     0.000 A 
ATOM     26  C   UNL     1       2.817   0.097   0.021  1.00  0.00     0.000 A 
ATOM     27  C   UNL     1       3.137   0.921  -1.055  1.00  0.00     0.000 A 
ENDBRANCH  21  22
ENDBRANCH  20  21
ENDBRANCH  19  20
BRANCH  19  28
ATOM     28  C   UNL     1       8.244  -1.033   2.361  1.00  0.00     0.326 C 
ATOM     29  O   UNL     1       9.025  -1.852   2.850  1.00  0.00    -0.250 OA
BRANCH  28  30
ATOM     30  O   UNL     1       7.199  -1.573   1.572  1.00  0.00    -0.480 OA
ATOM     31  H   UNL     1       7.233  -1.547   0.564  1.00  0.00     0.296 HD
ENDBRANCH  28  30
ENDBRANCH  19  28
ENDBRANCH   3  19
TORSDOF 9
ENDMDL
MODEL 4
REMARK VINA RESULT:      -2.1      2.313      5.643
REMARK SMILES O=C(CCc1nc(=O)c2ccccc2[nH]1)NC(CCc1ccccc1)C(=O)O
REMARK SMILES IDX 1 1 2 2 16 3 3 5 4 6 5 7 6 8 15 9 7 10 14 11 9 12 13 13
REMARK SMILES IDX 10 14 12 15 11 16 8 18 17 19 18 20 19 21 20 22 21 23 25 24
REMARK SMILES IDX 22 25 24 26 23 27 26 28 27 29 28 30
REMARK H PARENT 16 4 15 17 28 31
ROOT
ATOM      1  O   UNL     1       2.738   1.413  -1.538  1.00  0.00    -0.275 OA
ATOM      2  C   UNL     1       3.462   1.263  -0.532  1.00  0.00     0.221 C 
ATOM      3  N   UNL     1       4.296   2.327  -0.064  1.00  0.00    -0.343 N 
ATOM      4  H   UNL     1       4.913   2.252   0.764  1.00  0.00     0.164 HD
ENDROOT
BRANCH   2   5
ATOM      5  C   UNL     1       3.518  -0.006   0.249  1.00  0.00     0.108 C 
BRANCH   5   6
ATOM      6  C   UNL     1       4.854  -0.688  -0.026  1.00  0.00     0.085 C 
BRANCH   6   7
ATOM      7  C   UNL     1       5.871  -0.139   0.899  1.00  0.00     0.111 A 
ATOM      8  N   UNL     1       6.709   0.799   0.413  1.00  0.00    -0.196 NA
ATOM      9  N   UNL     1       5.922  -0.585   2.167  1.00  0.00    -0.343 N 
ATOM     10  C   UNL     1       7.671   1.361   1.180  1.00  0.00     0.280 A 
ATOM     11  C   UNL     1       6.864  -0.057   2.978  1.00  0.00     0.052 A 
ATOM     12  C   UNL     1       7.732   0.905   2.493  1.00  0.00     0.065 A 
ATOM     13  C   UNL     1       6.967  -0.474   4.292  1.00  0.00     0.027 A 
ATOM     14  C   UNL     1       8.707   1.455   3.323  1.00  0.00     0.016 A 
ATOM     15  C   UNL     1       7.923   0.052   5.136  1.00  0.00     0.002 A 
ATOM     16  C   UNL     1       8.783   1.017   4.629  1.00  0.00     0.001 A 
ATOM     17  H   UNL     1       5.281  -1.304   2.546  1.00  0.00     0.168 HD
ATOM     18  O   UNL     1       8.466   2.235   0.757  1.00  0.00    -0.267 OA
ENDBRANCH   6   7
ENDBRANCH   5   6
ENDBRANCH   2   5
BRANCH   3  19
ATOM     19  C   UNL     1       4.273   3.604  -0.807  1.00  0.00     0.192 C 
BRANCH  19  20
ATOM     20  C   UNL     1       4.308   4.690   0.188  1.00  0.00     0.042 C 
BRANCH  20  21
ATOM     21  C   UNL     1       5.526   4.842   1.025  1.00  0.00     0.038 C 
BRANCH  21  22
ATOM     22  C   UNL     1       5.282   5.082   2.462  1.00  0.00    -0.048 A 
ATOM     23  C   UNL     1       6.153   5.618   3.352  1.00  0.00     0.004 A 
ATOM     24  C   UNL     1       4.019   4.728   2.963  1.00  0.00     0.004 A 
ATOM     25  C   UNL     1       5.814   5.809   4.696  1.00  0.00     0.000 A 
ATOM     26  C   UNL     1       3.682   4.915   4.282  1.00  0.00     0.000 A 
ATOM     27  C   UNL     1       4.586   5.466   5.186  1.00  0.00     0.000 A 
ENDBRANCH  21  22
ENDBRANCH  20  21
ENDBRANCH  19  20
BRANCH  19  28
ATOM     28  C   UNL     1       5.420   3.616  -1.758  1.00  0.00     0.326 C 
ATOM     29  O   UNL     1       6.106   4.599  -2.045  1.00  0.00    -0.250 OA
BRANCH  28  30
ATOM     30  O   UNL     1       5.776   2.407  -2.402  1.00  0.00    -0.480 OA
ATOM     31  H   UNL     1       5.849   1.539  -1.891  1.00  0.00     0.296 HD
ENDBRANCH  28  30
ENDBRANCH  19  28
ENDBRANCH   3  19
TORSDOF 9
ENDMDL
MODEL 5
REMARK VINA RESULT:      -1.6      2.366      5.685
REMARK SMILES O=C(CCc1nc(=O)c2ccccc2[nH]1)NC(CCc1ccccc1)C(=O)O
REMARK SMILES IDX 1 1 2 2 16 3 3 5 4 6 5 7 6 8 15 9 7 10 14 11 9 12 13 13
REMARK SMILES IDX 10 14 12 15 11 16 8 18 17 19 18 20 19 21 20 22 21 23 25 24
REMARK SMILES IDX 22 25 24 26 23 27 26 28 27 29 28 30
REMARK H PARENT 16 4 15 17 28 31
ROOT
ATOM      1  O   UNL     1       7.106   2.859  -0.291  1.00  0.00    -0.275 OA
ATOM      2  C   UNL     1       7.829   3.745  -0.789  1.00  0.00     0.221 C 
ATOM      3  N   UNL     1       7.486   5.128  -0.662  1.00  0.00    -0.343 N 
ATOM      4  H   UNL     1       8.052   5.900  -1.057  1.00  0.00     0.164 HD
ENDROOT
BRANCH   2   5
ATOM      5  C   UNL     1       9.082   3.448  -1.542  1.00  0.00     0.108 C 
BRANCH   5   6
ATOM      6  C   UNL     1       9.686   2.160  -0.992  1.00  0.00     0.085 C 
BRANCH   6   7
ATOM      7  C   UNL     1       9.204   1.958   0.394  1.00  0.00     0.111 A 
ATOM      8  N   UNL     1       9.619   2.838   1.328  1.00  0.00    -0.196 NA
ATOM      9  N   UNL     1       8.386   0.926   0.666  1.00  0.00    -0.343 N 
ATOM     10  C   UNL     1       9.233   2.738   2.621  1.00  0.00     0.280 A 
ATOM     11  C   UNL     1       7.969   0.779   1.941  1.00  0.00     0.052 A 
ATOM     12  C   UNL     1       8.386   1.672   2.912  1.00  0.00     0.065 A 
ATOM     13  C   UNL     1       7.127  -0.262   2.285  1.00  0.00     0.027 A 
ATOM     14  C   UNL     1       7.962   1.528   4.231  1.00  0.00     0.016 A 
ATOM     15  C   UNL     1       6.690  -0.430   3.583  1.00  0.00     0.002 A 
ATOM     16  C   UNL     1       7.120   0.478   4.540  1.00  0.00     0.001 A 
ATOM     17  H   UNL     1       8.064   0.249  -0.048  1.00  0.00     0.168 HD
ATOM     18  O   UNL     1       9.601   3.539   3.513  1.00  0.00    -0.267 OA
ENDBRANCH   6   7
ENDBRANCH   5   6
ENDBRANCH   2   5
BRANCH   3  19
ATOM     19  C   UNL     1       6.253   5.472   0.076  1.00  0.00     0.192 C 
BRANCH  19  20
ATOM     20  C   UNL     1       5.192   4.566  -0.400  1.00  0.00     0.042 C 
BRANCH  20  21
ATOM     21  C   UNL     1       4.354   3.869   0.610  1.00  0.00     0.038 C 
BRANCH  21  22
ATOM     22  C   UNL     1       4.093   2.441   0.340  1.00  0.00    -0.048 A 
ATOM     23  C   UNL     1       3.829   1.479   1.258  1.00  0.00     0.004 A 
ATOM     24  C   UNL     1       4.109   2.031  -1.003  1.00  0.00     0.004 A 
ATOM     25  C   UNL     1       3.586   0.151   0.891  1.00  0.00     0.000 A 
ATOM     26  C   UNL     1       3.871   0.729  -1.368  1.00  0.00     0.000 A 
ATOM     27  C   UNL     1       3.602  -0.251  -0.416  1.00  0.00     0.000 A 
ENDBRANCH  21  22
ENDBRANCH  20  21
ENDBRANCH  19  20
BRANCH  19  28
ATOM     28  C   UNL     1       6.533   5.365   1.534  1.00  0.00     0.326 C 
ATOM     29  O   UNL     1       7.523   5.820   2.112  1.00  0.00    -0.250 OA
BRANCH  28  30
ATOM     30  O   UNL     1       5.599   4.689   2.355  1.00  0.00    -0.480 OA
ATOM     31  H   UNL     1       5.173   5.140   3.152  1.00  0.00     0.296 HD
ENDBRANCH  28  30
ENDBRANCH  19  28
ENDBRANCH   3  19
TORSDOF 9
ENDMDL
MODEL 6
REMARK VINA RESULT:      -1.5      2.490      5.051
REMARK SMILES O=C(CCc1nc(=O)c2ccccc2[nH]1)NC(CCc1ccccc1)C(=O)O
REMARK SMILES IDX 1 1 2 2 16 3 3 5 4 6 5 7 6 8 15 9 7 10 14 11 9 12 13 13
REMARK SMILES IDX 10 14 12 15 11 16 8 18 17 19 18 20 19 21 20 22 21 23 25 24
REMARK SMILES IDX 22 25 24 26 23 27 26 28 27 29 28 30
REMARK H PARENT 16 4 15 17 28 31
ROOT
ATOM      1  O   UNL     1       9.132   0.827   3.714  1.00  0.00    -0.275 OA
ATOM      2  C   UNL     1       8.030   0.836   4.298  1.00  0.00     0.221 C 
ATOM      3  N   UNL     1       7.124   1.932   4.140  1.00  0.00    -0.343 N 
ATOM      4  H   UNL     1       6.200   1.986   4.602  1.00  0.00     0.164 HD
ENDROOT
BRANCH   2   5
ATOM      5  C   UNL     1       7.571  -0.268   5.190  1.00  0.00     0.108 C 
BRANCH   5   6
ATOM      6  C   UNL     1       6.601  -1.152   4.413  1.00  0.00     0.085 C 
BRANCH   6   7
ATOM      7  C   UNL     1       6.452  -0.609   3.043  1.00  0.00     0.111 A 
ATOM      8  N   UNL     1       7.571  -0.481   2.302  1.00  0.00    -0.196 NA
ATOM      9  N   UNL     1       5.230  -0.270   2.595  1.00  0.00    -0.343 N 
ATOM     10  C   UNL     1       7.539   0.005   1.040  1.00  0.00     0.280 A 
ATOM     11  C   UNL     1       5.139   0.220   1.340  1.00  0.00     0.052 A 
ATOM     12  C   UNL     1       6.278   0.359   0.568  1.00  0.00     0.065 A 
ATOM     13  C   UNL     1       3.911   0.587   0.822  1.00  0.00     0.027 A 
ATOM     14  C   UNL     1       6.193   0.864  -0.728  1.00  0.00     0.016 A 
ATOM     15  C   UNL     1       3.796   1.091  -0.458  1.00  0.00     0.002 A 
ATOM     16  C   UNL     1       4.951   1.220  -1.215  1.00  0.00     0.001 A 
ATOM     17  H   UNL     1       4.368  -0.366   3.159  1.00  0.00     0.168 HD
ATOM     18  O   UNL     1       8.561   0.136   0.326  1.00  0.00    -0.267 OA
ENDBRANCH   6   7
ENDBRANCH   5   6
ENDBRANCH   2   5
BRANCH   3  19
ATOM     19  C   UNL     1       7.536   3.050   3.265  1.00  0.00     0.192 C 
BRANCH  19  20
ATOM     20  C   UNL     1       6.858   4.263   3.756  1.00  0.00     0.042 C 
BRANCH  20  21
ATOM     21  C   UNL     1       6.905   5.487   2.915  1.00  0.00     0.038 C 
BRANCH  21  22
ATOM     22  C   UNL     1       6.836   5.258   1.458  1.00  0.00    -0.048 A 
ATOM     23  C   UNL     1       5.860   4.598   0.788  1.00  0.00     0.004 A 
ATOM     24  C   UNL     1       7.881   5.781   0.679  1.00  0.00     0.004 A 
ATOM     25  C   UNL     1       5.889   4.445  -0.602  1.00  0.00     0.000 A 
ATOM     26  C   UNL     1       7.913   5.633  -0.686  1.00  0.00     0.000 A 
ATOM     27  C   UNL     1       6.905   4.953  -1.363  1.00  0.00     0.000 A 
ENDBRANCH  21  22
ENDBRANCH  20  21
ENDBRANCH  19  20
BRANCH  19  28
ATOM     28  C   UNL     1       9.023   3.137   3.282  1.00  0.00     0.326 C 
ATOM     29  O   UNL     1       9.706   3.593   4.201  1.00  0.00    -0.250 OA
BRANCH  28  30
ATOM     30  O   UNL     1       9.740   2.661   2.159  1.00  0.00    -0.480 OA
ATOM     31  H   UNL     1       9.553   3.005   1.228  1.00  0.00     0.296 HD
ENDBRANCH  28  30
ENDBRANCH  19  28
ENDBRANCH   3  19
TORSDOF 9
ENDMDL
MODEL 7
REMARK VINA RESULT:      -1.5      1.869      3.156
REMARK SMILES O=C(CCc1nc(=O)c2ccccc2[nH]1)NC(CCc1ccccc1)C(=O)O
REMARK SMILES IDX 1 1 2 2 16 3 3 5 4 6 5 7 6 8 15 9 7 10 14 11 9 12 13 13
REMARK SMILES IDX 10 14 12 15 11 16 8 18 17 19 18 20 19 21 20 22 21 23 25 24
REMARK SMILES IDX 22 25 24 26 23 27 26 28 27 29 28 30
REMARK H PARENT 16 4 15 17 28 31
ROOT
ATOM      1  O   UNL     1       4.275  -0.587   0.279  1.00  0.00    -0.275 OA
ATOM      2  C   UNL     1       4.270   0.386   1.061  1.00  0.00     0.221 C 
ATOM      3  N   UNL     1       5.390   0.648   1.912  1.00  0.00    -0.343 N 
ATOM      4  H   UNL     1       5.434   1.441   2.576  1.00  0.00     0.164 HD
ENDROOT
BRANCH   2   5
ATOM      5  C   UNL     1       3.126   1.335   1.173  1.00  0.00     0.108 C 
BRANCH   5   6
ATOM      6  C   UNL     1       3.209   2.336   0.025  1.00  0.00     0.085 C 
BRANCH   6   7
ATOM      7  C   UNL     1       4.626   2.714  -0.178  1.00  0.00     0.111 A 
ATOM      8  N   UNL     1       5.441   1.793  -0.731  1.00  0.00    -0.196 NA
ATOM      9  N   UNL     1       5.043   3.940   0.188  1.00  0.00    -0.343 N 
ATOM     10  C   UNL     1       6.751   2.043  -0.957  1.00  0.00     0.280 A 
ATOM     11  C   UNL     1       6.343   4.244  -0.015  1.00  0.00     0.052 A 
ATOM     12  C   UNL     1       7.191   3.309  -0.580  1.00  0.00     0.065 A 
ATOM     13  C   UNL     1       6.833   5.487   0.341  1.00  0.00     0.027 A 
ATOM     14  C   UNL     1       8.534   3.614  -0.793  1.00  0.00     0.016 A 
ATOM     15  C   UNL     1       8.157   5.817   0.142  1.00  0.00     0.002 A 
ATOM     16  C   UNL     1       8.990   4.864  -0.427  1.00  0.00     0.001 A 
ATOM     17  H   UNL     1       4.423   4.651   0.613  1.00  0.00     0.168 HD
ATOM     18  O   UNL     1       7.533   1.207  -1.469  1.00  0.00    -0.267 OA
ENDBRANCH   6   7
ENDBRANCH   5   6
ENDBRANCH   2   5
BRANCH   3  19
ATOM     19  C   UNL     1       6.548  -0.267   1.835  1.00  0.00     0.192 C 
BRANCH  19  20
ATOM     20  C   UNL     1       7.719   0.541   1.450  1.00  0.00     0.042 C 
BRANCH  20  21
ATOM     21  C   UNL     1       8.782   0.770   2.463  1.00  0.00     0.038 C 
BRANCH  21  22
ATOM     22  C   UNL     1       8.714   2.063   3.173  1.00  0.00    -0.048 A 
ATOM     23  C   UNL     1       8.133   3.203   2.723  1.00  0.00     0.004 A 
ATOM     24  C   UNL     1       9.299   2.124   4.447  1.00  0.00     0.004 A 
ATOM     25  C   UNL     1       8.118   4.376   3.485  1.00  0.00     0.000 A 
ATOM     26  C   UNL     1       9.286   3.273   5.199  1.00  0.00     0.000 A 
ATOM     27  C   UNL     1       8.687   4.438   4.726  1.00  0.00     0.000 A 
ENDBRANCH  21  22
ENDBRANCH  20  21
ENDBRANCH  19  20
BRANCH  19  28
ATOM     28  C   UNL     1       6.691  -0.955   3.148  1.00  0.00     0.326 C 
ATOM     29  O   UNL     1       5.823  -1.027   4.021  1.00  0.00    -0.250 OA
BRANCH  28  30
ATOM     30  O   UNL     1       7.919  -1.592   3.447  1.00  0.00    -0.480 OA
ATOM     31  H   UNL     1       7.956  -2.424   4.019  1.00  0.00     0.296 HD
ENDBRANCH  28  30
ENDBRANCH  19  28
ENDBRANCH   3  19
TORSDOF 9
ENDMDL
MODEL 8
REMARK VINA RESULT:      -1.3      2.711      4.957
REMARK SMILES O=C(CCc1nc(=O)c2ccccc2[nH]1)NC(CCc1ccccc1)C(=O)O
REMARK SMILES IDX 1 1 2 2 16 3 3 5 4 6 5 7 6 8 15 9 7 10 14 11 9 12 13 13
REMARK SMILES IDX 10 14 12 15 11 16 8 18 17 19 18 20 19 21 20 22 21 23 25 24
REMARK SMILES IDX 22 25 24 26 23 27 26 28 27 29 28 30
REMARK H PARENT 16 4 15 17 28 31
ROOT
ATOM      1  O   UNL     1       8.842   1.801  -2.920  1.00  0.00    -0.275 OA
ATOM      2  C   UNL     1       8.318   2.904  -2.663  1.00  0.00     0.221 C 
ATOM      3  N   UNL     1       7.360   3.033  -1.608  1.00  0.00    -0.343 N 
ATOM      4  H   UNL     1       6.898   3.924  -1.355  1.00  0.00     0.164 HD
ENDROOT
BRANCH   2   5
ATOM      5  C   UNL     1       8.636   4.153  -3.414  1.00  0.00     0.108 C 
BRANCH   5   6
ATOM      6  C   UNL     1       9.497   5.048  -2.529  1.00  0.00     0.085 C 
BRANCH   6   7
ATOM      7  C   UNL     1       8.811   5.239  -1.230  1.00  0.00     0.111 A 
ATOM      8  N   UNL     1       9.582   5.332  -0.129  1.00  0.00    -0.196 NA
ATOM      9  N   UNL     1       7.468   5.314  -1.197  1.00  0.00    -0.343 N 
ATOM     10  C   UNL     1       9.049   5.508   1.102  1.00  0.00     0.280 A 
ATOM     11  C   UNL     1       6.882   5.490   0.006  1.00  0.00     0.052 A 
ATOM     12  C   UNL     1       7.660   5.585   1.146  1.00  0.00     0.065 A 
ATOM     13  C   UNL     1       5.506   5.574   0.107  1.00  0.00     0.027 A 
ATOM     14  C   UNL     1       7.064   5.767   2.393  1.00  0.00     0.016 A 
ATOM     15  C   UNL     1       4.887   5.753   1.327  1.00  0.00     0.002 A 
ATOM     16  C   UNL     1       5.687   5.847   2.457  1.00  0.00     0.001 A 
ATOM     17  H   UNL     1       6.871   5.244  -2.040  1.00  0.00     0.168 HD
ATOM     18  O   UNL     1       9.739   5.597   2.145  1.00  0.00    -0.267 OA
ENDBRANCH   6   7
ENDBRANCH   5   6
ENDBRANCH   2   5
BRANCH   3  19
ATOM     19  C   UNL     1       7.013   1.821  -0.836  1.00  0.00     0.192 C 
BRANCH  19  20
ATOM     20  C   UNL     1       7.689   1.926   0.470  1.00  0.00     0.042 C 
BRANCH  20  21
ATOM     21  C   UNL     1       8.444   0.749   0.971  1.00  0.00     0.038 C 
BRANCH  21  22
ATOM     22  C   UNL     1       8.422   0.558   2.434  1.00  0.00    -0.048 A 
ATOM     23  C   UNL     1       8.843   1.441   3.372  1.00  0.00     0.004 A 
ATOM     24  C   UNL     1       7.906  -0.658   2.912  1.00  0.00     0.004 A 
ATOM     25  C   UNL     1       8.768   1.160   4.741  1.00  0.00     0.000 A 
ATOM     26  C   UNL     1       7.830  -0.938   4.255  1.00  0.00     0.000 A 
ATOM     27  C   UNL     1       8.266  -0.022   5.209  1.00  0.00     0.000 A 
ENDBRANCH  21  22
ENDBRANCH  20  21
ENDBRANCH  19  20
BRANCH  19  28
ATOM     28  C   UNL     1       5.529   1.730  -0.745  1.00  0.00     0.326 C 
ATOM     29  O   UNL     1       4.890   1.353   0.239  1.00  0.00    -0.250 OA
BRANCH  28  30
ATOM     30  O   UNL     1       4.759   2.104  -1.873  1.00  0.00    -0.480 OA
ATOM     31  H   UNL     1       3.761   2.236  -1.809  1.00  0.00     0.296 HD
ENDBRANCH  28  30
ENDBRANCH  19  28
ENDBRANCH   3  19
TORSDOF 9
ENDMDL
MODEL 9
REMARK VINA RESULT:      -1.1      2.275      3.844
REMARK SMILES O=C(CCc1nc(=O)c2ccccc2[nH]1)NC(CCc1ccccc1)C(=O)O
REMARK SMILES IDX 1 1 2 2 16 3 3 5 4 6 5 7 6 8 15 9 7 10 14 11 9 12 13 13
REMARK SMILES IDX 10 14 12 15 11 16 8 18 17 19 18 20 19 21 20 22 21 23 25 24
REMARK SMILES IDX 22 25 24 26 23 27 26 28 27 29 28 30
REMARK H PARENT 16 4 15 17 28 31
ROOT
ATOM      1  O   UNL     1       3.003   1.168  -1.739  1.00  0.00    -0.275 OA
ATOM      2  C   UNL     1       4.151   1.642  -1.621  1.00  0.00     0.221 C 
ATOM      3  N   UNL     1       5.110   1.033  -0.751  1.00  0.00    -0.343 N 
ATOM      4  H   UNL     1       6.074   1.388  -0.619  1.00  0.00     0.164 HD
ENDROOT
BRANCH   2   5
ATOM      5  C   UNL     1       4.612   2.854  -2.357  1.00  0.00     0.108 C 
BRANCH   5   6
ATOM      6  C   UNL     1       4.309   4.084  -1.509  1.00  0.00     0.085 C 
BRANCH   6   7
ATOM      7  C   UNL     1       5.414   4.283  -0.543  1.00  0.00     0.111 A 
ATOM      8  N   UNL     1       5.227   3.833   0.714  1.00  0.00    -0.196 NA
ATOM      9  N   UNL     1       6.543   4.893  -0.946  1.00  0.00    -0.343 N 
ATOM     10  C   UNL     1       6.177   3.967   1.668  1.00  0.00     0.280 A 
ATOM     11  C   UNL     1       7.525   5.054  -0.034  1.00  0.00     0.052 A 
ATOM     12  C   UNL     1       7.349   4.598   1.260  1.00  0.00     0.065 A 
ATOM     13  C   UNL     1       8.710   5.673  -0.386  1.00  0.00     0.027 A 
ATOM     14  C   UNL     1       8.358   4.759   2.208  1.00  0.00     0.016 A 
ATOM     15  C   UNL     1       9.727   5.847   0.530  1.00  0.00     0.002 A 
ATOM     16  C   UNL     1       9.528   5.382   1.823  1.00  0.00     0.001 A 
ATOM     17  H   UNL     1       6.692   5.240  -1.909  1.00  0.00     0.168 HD
ATOM     18  O   UNL     1       6.033   3.559   2.845  1.00  0.00    -0.267 OA
ENDBRANCH   6   7
ENDBRANCH   5   6
ENDBRANCH   2   5
BRANCH   3  19
ATOM     19  C   UNL     1       4.699  -0.171   0.000  1.00  0.00     0.192 C 
BRANCH  19  20
ATOM     20  C   UNL     1       5.753  -0.451   0.991  1.00  0.00     0.042 C 
BRANCH  20  21
ATOM     21  C   UNL     1       6.761   0.606   1.267  1.00  0.00     0.038 C 
BRANCH  21  22
ATOM     22  C   UNL     1       7.530   0.437   2.515  1.00  0.00    -0.048 A 
ATOM     23  C   UNL     1       7.025   0.330   3.769  1.00  0.00     0.004 A 
ATOM     24  C   UNL     1       8.928   0.371   2.401  1.00  0.00     0.004 A 
ATOM     25  C   UNL     1       7.849   0.164   4.888  1.00  0.00     0.000 A 
ATOM     26  C   UNL     1       9.740   0.207   3.496  1.00  0.00     0.000 A 
ATOM     27  C   UNL     1       9.209   0.099   4.779  1.00  0.00     0.000 A 
ENDBRANCH  21  22
ENDBRANCH  20  21
ENDBRANCH  19  20
BRANCH  19  28
ATOM     28  C   UNL     1       3.358   0.082   0.596  1.00  0.00     0.326 C 
ATOM     29  O   UNL     1       2.488   0.818   0.124  1.00  0.00    -0.250 OA
BRANCH  28  30
ATOM     30  O   UNL     1       3.023  -0.567   1.809  1.00  0.00    -0.480 OA
ATOM     31  H   UNL     1       2.249  -0.256   2.377  1.00  0.00     0.296 HD
ENDBRANCH  28  30
ENDBRANCH  19  28
ENDBRANCH   3  19
TORSDOF 9
ENDMDL
