MODEL 1
REMARK VINA RESULT:      -4.2      0.000      0.000
REMARK SMILES CN(C)CCOCCCc1ccccc1
REMARK SMILES IDX 6 1 5 2 4 3 2 4 1 5 3 6 7 7 8 8 9 9 10 10 11 11 15 12 12 13
REMARK SMILES IDX 14 14 13 15
REMARK H PARENT
ROOT
ATOM      1  O   UNL     1       6.266  -0.127  -0.277  1.00  0.00    -0.380 OA
ENDROOT
BRANCH   1   2
ATOM      2  C   UNL     1       6.970   0.051   0.928  1.00  0.00     0.175 C 
BRANCH   2   3
ATOM      3  C   UNL     1       8.155   0.915   0.588  1.00  0.00     0.112 C 
BRANCH   3   4
ATOM      4  N   UNL     1       8.084   1.554  -0.699  1.00  0.00    -0.307 NA
ATOM      5  C   UNL     1       8.021   2.979  -0.583  1.00  0.00     0.105 C 
ATOM      6  C   UNL     1       9.091   1.143  -1.619  1.00  0.00     0.105 C 
ENDBRANCH   3   4
ENDBRANCH   2   3
ENDBRANCH   1   2
BRANCH   1   7
ATOM      7  C   UNL     1       5.035  -0.699   0.006  1.00  0.00     0.160 C 
BRANCH   7   8
ATOM      8  C   UNL     1       3.881   0.244  -0.247  1.00  0.00     0.033 C 
BRANCH   8   9
ATOM      9  C   UNL     1       4.309   1.215  -1.330  1.00  0.00     0.038 C 
BRANCH   9  10
ATOM     10  C   UNL     1       4.398   2.602  -0.841  1.00  0.00    -0.048 A 
ATOM     11  C   UNL     1       4.459   2.781   0.537  1.00  0.00     0.004 A 
ATOM     12  C   UNL     1       4.424   3.696  -1.680  1.00  0.00     0.004 A 
ATOM     13  C   UNL     1       4.545   4.050   1.103  1.00  0.00     0.000 A 
ATOM     14  C   UNL     1       4.510   4.970  -1.135  1.00  0.00     0.000 A 
ATOM     15  C   UNL     1       4.569   5.143   0.237  1.00  0.00     0.000 A 
ENDBRANCH   9  10
ENDBRANCH   8   9
ENDBRANCH   7   8
ENDBRANCH   1   7
TORSDOF 7
ENDMDL
MODEL 2
REMARK VINA RESULT:      -4.1      2.136      2.811
REMARK SMILES CN(C)CCOCCCc1ccccc1
REMARK SMILES IDX 6 1 5 2 4 3 2 4 1 5 3 6 7 7 8 8 9 9 10 10 11 11 15 12 12 13
REMARK SMILES IDX 14 14 13 15
REMARK H PARENT
ROOT
ATOM      1  O   UNL     1       6.362  -0.197   0.951  1.00  0.00    -0.380 OA
ENDROOT
BRANCH   1   2
ATOM      2  C   UNL     1       7.133  -0.580   2.062  1.00  0.00     0.175 C 
BRANCH   2   3
ATOM      3  C   UNL     1       7.628   0.701   2.680  1.00  0.00     0.112 C 
BRANCH   3   4
ATOM      4  N   UNL     1       7.224   0.905   4.045  1.00  0.00    -0.307 NA
ATOM      5  C   UNL     1       7.191  -0.322   4.780  1.00  0.00     0.105 C 
ATOM      6  C   UNL     1       7.959   1.912   4.734  1.00  0.00     0.105 C 
ENDBRANCH   3   4
ENDBRANCH   2   3
ENDBRANCH   1   2
BRANCH   1   7
ATOM      7  C   UNL     1       5.022  -0.212   1.310  1.00  0.00     0.160 C 
BRANCH   7   8
ATOM      8  C   UNL     1       4.128   0.400   0.257  1.00  0.00     0.033 C 
BRANCH   8   9
ATOM      9  C   UNL     1       5.000   1.230  -0.662  1.00  0.00     0.038 C 
BRANCH   9  10
ATOM     10  C   UNL     1       4.741   2.675  -0.534  1.00  0.00    -0.048 A 
ATOM     11  C   UNL     1       4.603   3.178   0.756  1.00  0.00     0.004 A 
ATOM     12  C   UNL     1       4.635   3.521  -1.617  1.00  0.00     0.004 A 
ATOM     13  C   UNL     1       4.356   4.527   0.989  1.00  0.00     0.000 A 
ATOM     14  C   UNL     1       4.389   4.871  -1.406  1.00  0.00     0.000 A 
ATOM     15  C   UNL     1       4.251   5.366  -0.121  1.00  0.00     0.000 A 
ENDBRANCH   9  10
ENDBRANCH   8   9
ENDBRANCH   7   8
ENDBRANCH   1   7
TORSDOF 7
ENDMDL
MODEL 3
REMARK VINA RESULT:      -4.0      1.850      2.804
REMARK SMILES CN(C)CCOCCCc1ccccc1
REMARK SMILES IDX 6 1 5 2 4 3 2 4 1 5 3 6 7 7 8 8 9 9 10 10 11 11 15 12 12 13
REMARK SMILES IDX 14 14 13 15
REMARK H PARENT
ROOT
ATOM      1  O   UNL     1       5.906  -0.334  -0.267  1.00  0.00    -0.380 OA
ENDROOT
BRANCH   1   2
ATOM      2  C   UNL     1       6.767   0.060   0.774  1.00  0.00     0.175 C 
BRANCH   2   3
ATOM      3  C   UNL     1       6.238  -0.606   2.017  1.00  0.00     0.112 C 
BRANCH   3   4
ATOM      4  N   UNL     1       7.217  -0.818   3.048  1.00  0.00    -0.307 NA
ATOM      5  C   UNL     1       8.501  -1.140   2.505  1.00  0.00     0.105 C 
ATOM      6  C   UNL     1       7.299   0.230   4.010  1.00  0.00     0.105 C 
ENDBRANCH   3   4
ENDBRANCH   2   3
ENDBRANCH   1   2
BRANCH   1   7
ATOM      7  C   UNL     1       4.596  -0.248   0.180  1.00  0.00     0.160 C 
BRANCH   7   8
ATOM      8  C   UNL     1       3.783   0.771  -0.585  1.00  0.00     0.033 C 
BRANCH   8   9
ATOM      9  C   UNL     1       4.749   1.765  -1.197  1.00  0.00     0.038 C 
BRANCH   9  10
ATOM     10  C   UNL     1       4.557   3.131  -0.680  1.00  0.00    -0.048 A 
ATOM     11  C   UNL     1       4.383   4.141  -1.622  1.00  0.00     0.004 A 
ATOM     12  C   UNL     1       4.542   3.434   0.664  1.00  0.00     0.004 A 
ATOM     13  C   UNL     1       4.194   5.466  -1.241  1.00  0.00     0.000 A 
ATOM     14  C   UNL     1       4.355   4.749   1.065  1.00  0.00     0.000 A 
ATOM     15  C   UNL     1       4.183   5.751   0.125  1.00  0.00     0.000 A 
ENDBRANCH   9  10
ENDBRANCH   8   9
ENDBRANCH   7   8
ENDBRANCH   1   7
TORSDOF 7
ENDMDL
MODEL 4
REMARK VINA RESULT:      -4.0      1.086      1.383
REMARK SMILES CN(C)CCOCCCc1ccccc1
REMARK SMILES IDX 6 1 5 2 4 3 2 4 1 5 3 6 7 7 8 8 9 9 10 10 11 11 15 12 12 13
REMARK SMILES IDX 14 14 13 15
REMARK H PARENT
ROOT
ATOM      1  O   UNL     1       5.154  -0.758   1.556  1.00  0.00    -0.380 OA
ENDROOT
BRANCH   1   2
ATOM      2  C   UNL     1       6.500  -0.475   1.849  1.00  0.00     0.175 C 
BRANCH   2   3
ATOM      3  C   UNL     1       7.065   0.160   0.606  1.00  0.00     0.112 C 
BRANCH   3   4
ATOM      4  N   UNL     1       8.145   1.080   0.839  1.00  0.00    -0.307 NA
ATOM      5  C   UNL     1       9.410   0.414   0.896  1.00  0.00     0.105 C 
ATOM      6  C   UNL     1       8.175   2.193  -0.049  1.00  0.00     0.105 C 
ENDBRANCH   3   4
ENDBRANCH   2   3
ENDBRANCH   1   2
BRANCH   1   7
ATOM      7  C   UNL     1       4.965  -0.663   0.185  1.00  0.00     0.160 C 
BRANCH   7   8
ATOM      8  C   UNL     1       3.651  -0.014  -0.180  1.00  0.00     0.033 C 
BRANCH   8   9
ATOM      9  C   UNL     1       3.919   0.969  -1.302  1.00  0.00     0.038 C 
BRANCH   9  10
ATOM     10  C   UNL     1       4.385   2.276  -0.807  1.00  0.00    -0.048 A 
ATOM     11  C   UNL     1       4.216   2.533   0.550  1.00  0.00     0.004 A 
ATOM     12  C   UNL     1       4.967   3.226  -1.619  1.00  0.00     0.004 A 
ATOM     13  C   UNL     1       4.621   3.736   1.120  1.00  0.00     0.000 A 
ATOM     14  C   UNL     1       5.379   4.432  -1.070  1.00  0.00     0.000 A 
ATOM     15  C   UNL     1       5.207   4.683   0.279  1.00  0.00     0.000 A 
ENDBRANCH   9  10
ENDBRANCH   8   9
ENDBRANCH   7   8
ENDBRANCH   1   7
TORSDOF 7
ENDMDL
MODEL 5
REMARK VINA RESULT:      -4.0      2.101      2.754
REMARK SMILES CN(C)CCOCCCc1ccccc1
REMARK SMILES IDX 6 1 5 2 4 3 2 4 1 5 3 6 7 7 8 8 9 9 10 10 11 11 15 12 12 13
REMARK SMILES IDX 14 14 13 15
REMARK H PARENT
ROOT
ATOM      1  O   UNL     1       6.349  -1.274   1.863  1.00  0.00    -0.380 OA
ENDROOT
BRANCH   1   2
ATOM      2  C   UNL     1       6.246  -0.573   3.078  1.00  0.00     0.175 C 
BRANCH   2   3
ATOM      3  C   UNL     1       7.082   0.668   2.907  1.00  0.00     0.112 C 
BRANCH   3   4
ATOM      4  N   UNL     1       8.335   0.650   3.612  1.00  0.00    -0.307 NA
ATOM      5  C   UNL     1       8.340  -0.318   4.665  1.00  0.00     0.105 C 
ATOM      6  C   UNL     1       9.482   0.525   2.775  1.00  0.00     0.105 C 
ENDBRANCH   3   4
ENDBRANCH   2   3
ENDBRANCH   1   2
BRANCH   1   7
ATOM      7  C   UNL     1       6.113  -0.393   0.818  1.00  0.00     0.160 C 
BRANCH   7   8
ATOM      8  C   UNL     1       5.013  -0.864  -0.106  1.00  0.00     0.033 C 
BRANCH   8   9
ATOM      9  C   UNL     1       3.833   0.069   0.070  1.00  0.00     0.038 C 
BRANCH   9  10
ATOM     10  C   UNL     1       4.182   1.477  -0.188  1.00  0.00    -0.048 A 
ATOM     11  C   UNL     1       4.281   2.315   0.919  1.00  0.00     0.004 A 
ATOM     12  C   UNL     1       4.408   1.978  -1.453  1.00  0.00     0.004 A 
ATOM     13  C   UNL     1       4.605   3.662   0.786  1.00  0.00     0.000 A 
ATOM     14  C   UNL     1       4.733   3.319  -1.606  1.00  0.00     0.000 A 
ATOM     15  C   UNL     1       4.829   4.148  -0.503  1.00  0.00     0.000 A 
ENDBRANCH   9  10
ENDBRANCH   8   9
ENDBRANCH   7   8
ENDBRANCH   1   7
TORSDOF 7
ENDMDL
MODEL 6
REMARK VINA RESULT:      -4.0      1.582      2.145
REMARK SMILES CN(C)CCOCCCc1ccccc1
REMARK SMILES IDX 6 1 5 2 4 3 2 4 1 5 3 6 7 7 8 8 9 9 10 10 11 11 15 12 12 13
REMARK SMILES IDX 14 14 13 15
REMARK H PARENT
ROOT
ATOM      1  O   UNL     1       5.417  -0.284   2.143  1.00  0.00    -0.380 OA
ENDROOT
BRANCH   1   2
ATOM      2  C   UNL     1       6.608  -0.545   2.844  1.00  0.00     0.175 C 
BRANCH   2   3
ATOM      3  C   UNL     1       7.723  -0.080   1.947  1.00  0.00     0.112 C 
BRANCH   3   4
ATOM      4  N   UNL     1       8.189   1.255   2.210  1.00  0.00    -0.307 NA
ATOM      5  C   UNL     1       7.894   2.145   1.128  1.00  0.00     0.105 C 
ATOM      6  C   UNL     1       7.771   1.791   3.462  1.00  0.00     0.105 C 
ENDBRANCH   3   4
ENDBRANCH   2   3
ENDBRANCH   1   2
BRANCH   1   7
ATOM      7  C   UNL     1       5.545  -0.768   0.849  1.00  0.00     0.160 C 
BRANCH   7   8
ATOM      8  C   UNL     1       4.349  -0.446  -0.016  1.00  0.00     0.033 C 
BRANCH   8   9
ATOM      9  C   UNL     1       3.659   0.762   0.584  1.00  0.00     0.038 C 
BRANCH   9  10
ATOM     10  C   UNL     1       4.163   2.033   0.033  1.00  0.00    -0.048 A 
ATOM     11  C   UNL     1       4.332   3.084   0.928  1.00  0.00     0.004 A 
ATOM     12  C   UNL     1       4.465   2.209  -1.301  1.00  0.00     0.004 A 
ATOM     13  C   UNL     1       4.802   4.326   0.512  1.00  0.00     0.000 A 
ATOM     14  C   UNL     1       4.935   3.440  -1.736  1.00  0.00     0.000 A 
ATOM     15  C   UNL     1       5.101   4.483  -0.842  1.00  0.00     0.000 A 
ENDBRANCH   9  10
ENDBRANCH   8   9
ENDBRANCH   7   8
ENDBRANCH   1   7
TORSDOF 7
ENDMDL
MODEL 7
REMARK VINA RESULT:      -4.0      2.105      2.690
REMARK SMILES CN(C)CCOCCCc1ccccc1
REMARK SMILES IDX 6 1 5 2 4 3 2 4 1 5 3 6 7 7 8 8 9 9 10 10 11 11 15 12 12 13
REMARK SMILES IDX 14 14 13 15
REMARK H PARENT
ROOT
ATOM      1  O   UNL     1       6.612  -0.064   0.829  1.00  0.00    -0.380 OA
ENDROOT
BRANCH   1   2
ATOM      2  C   UNL     1       6.593  -0.092   2.235  1.00  0.00     0.175 C 
BRANCH   2   3
ATOM      3  C   UNL     1       7.734   0.784   2.678  1.00  0.00     0.112 C 
BRANCH   3   4
ATOM      4  N   UNL     1       8.015   0.739   4.087  1.00  0.00    -0.307 NA
ATOM      5  C   UNL     1       8.114   2.049   4.654  1.00  0.00     0.105 C 
ATOM      6  C   UNL     1       7.136  -0.095   4.838  1.00  0.00     0.105 C 
ENDBRANCH   3   4
ENDBRANCH   2   3
ENDBRANCH   1   2
BRANCH   1   7
ATOM      7  C   UNL     1       5.532  -0.794   0.353  1.00  0.00     0.160 C 
BRANCH   7   8
ATOM      8  C   UNL     1       4.257   0.015   0.302  1.00  0.00     0.033 C 
BRANCH   8   9
ATOM      9  C   UNL     1       4.292   0.851  -0.962  1.00  0.00     0.038 C 
BRANCH   9  10
ATOM     10  C   UNL     1       4.429   2.291  -0.682  1.00  0.00    -0.048 A 
ATOM     11  C   UNL     1       4.379   2.681   0.653  1.00  0.00     0.004 A 
ATOM     12  C   UNL     1       4.600   3.238  -1.670  1.00  0.00     0.004 A 
ATOM     13  C   UNL     1       4.498   4.017   1.026  1.00  0.00     0.000 A 
ATOM     14  C   UNL     1       4.721   4.575  -1.318  1.00  0.00     0.000 A 
ATOM     15  C   UNL     1       4.670   4.958   0.010  1.00  0.00     0.000 A 
ENDBRANCH   9  10
ENDBRANCH   8   9
ENDBRANCH   7   8
ENDBRANCH   1   7
TORSDOF 7
ENDMDL
MODEL 8
REMARK VINA RESULT:      -4.0      2.015      2.875
REMARK SMILES CN(C)CCOCCCc1ccccc1
REMARK SMILES IDX 6 1 5 2 4 3 2 4 1 5 3 6 7 7 8 8 9 9 10 10 11 11 15 12 12 13
REMARK SMILES IDX 14 14 13 15
REMARK H PARENT
ROOT
ATOM      1  O   UNL     1       6.071  -0.385   0.592  1.00  0.00    -0.380 OA
ENDROOT
BRANCH   1   2
ATOM      2  C   UNL     1       5.648  -0.244   1.926  1.00  0.00     0.175 C 
BRANCH   2   3
ATOM      3  C   UNL     1       6.554   0.793   2.536  1.00  0.00     0.112 C 
BRANCH   3   4
ATOM      4  N   UNL     1       7.273   0.352   3.701  1.00  0.00    -0.307 NA
ATOM      5  C   UNL     1       8.237  -0.657   3.382  1.00  0.00     0.105 C 
ATOM      6  C   UNL     1       7.845   1.402   4.475  1.00  0.00     0.105 C 
ENDBRANCH   3   4
ENDBRANCH   2   3
ENDBRANCH   1   2
BRANCH   1   7
ATOM      7  C   UNL     1       4.988  -0.780  -0.180  1.00  0.00     0.160 C 
BRANCH   7   8
ATOM      8  C   UNL     1       3.826   0.183  -0.092  1.00  0.00     0.033 C 
BRANCH   8   9
ATOM      9  C   UNL     1       4.025   1.243  -1.156  1.00  0.00     0.038 C 
BRANCH   9  10
ATOM     10  C   UNL     1       4.568   2.499  -0.607  1.00  0.00    -0.048 A 
ATOM     11  C   UNL     1       5.464   3.200  -1.408  1.00  0.00     0.004 A 
ATOM     12  C   UNL     1       4.227   2.988   0.635  1.00  0.00     0.004 A 
ATOM     13  C   UNL     1       6.035   4.397  -0.986  1.00  0.00     0.000 A 
ATOM     14  C   UNL     1       4.786   4.180   1.075  1.00  0.00     0.000 A 
ATOM     15  C   UNL     1       5.677   4.874   0.276  1.00  0.00     0.000 A 
ENDBRANCH   9  10
ENDBRANCH   8   9
ENDBRANCH   7   8
ENDBRANCH   1   7
TORSDOF 7
ENDMDL
MODEL 9
REMARK VINA RESULT:      -4.0      2.079      2.593
REMARK SMILES CN(C)CCOCCCc1ccccc1
REMARK SMILES IDX 6 1 5 2 4 3 2 4 1 5 3 6 7 7 8 8 9 9 10 10 11 11 15 12 12 13
REMARK SMILES IDX 14 14 13 15
REMARK H PARENT
ROOT
ATOM      1  O   UNL     1       4.928  -0.598   1.580  1.00  0.00    -0.380 OA
ENDROOT
BRANCH   1   2
ATOM      2  C   UNL     1       6.297  -0.681   1.894  1.00  0.00     0.175 C 
BRANCH   2   3
ATOM      3  C   UNL     1       6.652   0.636   2.530  1.00  0.00     0.112 C 
BRANCH   3   4
ATOM      4  N   UNL     1       7.511   0.536   3.679  1.00  0.00    -0.307 NA
ATOM      5  C   UNL     1       8.482  -0.504   3.530  1.00  0.00     0.105 C 
ATOM      6  C   UNL     1       8.112   1.765   4.076  1.00  0.00     0.105 C 
ENDBRANCH   3   4
ENDBRANCH   2   3
ENDBRANCH   1   2
BRANCH   1   7
ATOM      7  C   UNL     1       4.785  -0.607   0.201  1.00  0.00     0.160 C 
BRANCH   7   8
ATOM      8  C   UNL     1       3.640   0.259  -0.273  1.00  0.00     0.033 C 
BRANCH   8   9
ATOM      9  C   UNL     1       4.179   1.194  -1.337  1.00  0.00     0.038 C 
BRANCH   9  10
ATOM     10  C   UNL     1       4.626   2.484  -0.781  1.00  0.00    -0.048 A 
ATOM     11  C   UNL     1       4.283   2.752   0.540  1.00  0.00     0.004 A 
ATOM     12  C   UNL     1       5.352   3.405  -1.505  1.00  0.00     0.004 A 
ATOM     13  C   UNL     1       4.655   3.941   1.162  1.00  0.00     0.000 A 
ATOM     14  C   UNL     1       5.732   4.597  -0.904  1.00  0.00     0.000 A 
ATOM     15  C   UNL     1       5.388   4.860   0.410  1.00  0.00     0.000 A 
ENDBRANCH   9  10
ENDBRANCH   8   9
ENDBRANCH   7   8
ENDBRANCH   1   7
TORSDOF 7
ENDMDL
