MODEL 1
REMARK VINA RESULT:      -5.0      0.000      0.000
REMARK SMILES Cn1[nH]nc2c3nc(C(F)(F)F)[nH]c(=O)c3cc-2c1=N
REMARK SMILES IDX 1 1 2 2 3 3 4 4 5 5 6 6 7 7 8 8 13 9 14 10 15 11 16 12 17 13
REMARK SMILES IDX 18 14 19 15 20 18 9 20 10 21 11 22 12 23
REMARK H PARENT 3 16 13 17 20 19
ROOT
ATOM      1  C   UNL     1       9.689   0.019   4.876  1.00  0.00     0.175 C 
ATOM      2  N   UNL     1       8.813   0.676   3.903  1.00  0.00    -0.258 N 
ATOM      3  N   UNL     1       8.764   2.000   3.801  1.00  0.00    -0.217 N 
ATOM      4  N   UNL     1       7.984   2.627   2.935  1.00  0.00    -0.157 NA
ATOM      5  C   UNL     1       7.191   1.952   2.101  1.00  0.00     0.122 A 
ATOM      6  C   UNL     1       6.281   2.240   1.107  1.00  0.00     0.107 A 
ATOM      7  N   UNL     1       5.893   3.447   0.643  1.00  0.00    -0.223 NA
ATOM      8  C   UNL     1       4.970   3.516  -0.359  1.00  0.00     0.216 A 
ATOM      9  N   UNL     1       4.469   2.365  -0.857  1.00  0.00    -0.302 N 
ATOM     10  C   UNL     1       4.836   1.151  -0.415  1.00  0.00     0.259 A 
ATOM     11  O   UNL     1       4.342   0.093  -0.911  1.00  0.00    -0.269 OA
ATOM     12  C   UNL     1       5.779   1.057   0.607  1.00  0.00     0.069 A 
ATOM     13  C   UNL     1       6.338  -0.027   1.252  1.00  0.00     0.030 A 
ATOM     14  C   UNL     1       7.218   0.488   2.185  1.00  0.00     0.049 A 
ATOM     15  C   UNL     1       8.059  -0.131   3.118  1.00  0.00     0.150 A 
ATOM     16  H   UNL     1       9.368   2.604   4.432  1.00  0.00     0.212 HD
ATOM     17  H   UNL     1       3.771   2.430  -1.616  1.00  0.00     0.171 HD
ENDROOT
BRANCH  15  18
ATOM     18  N   UNL     1       8.132  -1.394   3.243  1.00  0.00    -0.283 NA
ATOM     19  H   UNL     1       8.694  -2.038   2.654  1.00  0.00     0.189 HD
ENDBRANCH  15  18
BRANCH   8  20
ATOM     20  C   UNL     1       4.541   4.857  -0.872  1.00  0.00     0.449 C 
ATOM     21  F   UNL     1       3.643   5.471  -0.038  1.00  0.00    -0.163 F 
ATOM     22  F   UNL     1       5.687   5.657  -0.909  1.00  0.00    -0.163 F 
ATOM     23  F   UNL     1       4.032   4.719  -2.129  1.00  0.00    -0.163 F 
ENDBRANCH   8  20
TORSDOF 2
ENDMDL
MODEL 2
REMARK VINA RESULT:      -5.0      0.981      1.071
REMARK SMILES Cn1[nH]nc2c3nc(C(F)(F)F)[nH]c(=O)c3cc-2c1=N
REMARK SMILES IDX 1 1 2 2 3 3 4 4 5 5 6 6 7 7 8 8 13 9 14 10 15 11 16 12 17 13
REMARK SMILES IDX 18 14 19 15 20 18 9 20 10 21 11 22 12 23
REMARK H PARENT 3 16 13 17 20 19
ROOT
ATOM      1  C   UNL     1       9.245  -1.522   4.416  1.00  0.00     0.175 C 
ATOM      2  N   UNL     1       8.452  -0.542   3.667  1.00  0.00    -0.258 N 
ATOM      3  N   UNL     1       8.420   0.737   4.023  1.00  0.00    -0.217 N 
ATOM      4  N   UNL     1       7.716   1.649   3.372  1.00  0.00    -0.157 NA
ATOM      5  C   UNL     1       6.986   1.326   2.302  1.00  0.00     0.122 A 
ATOM      6  C   UNL     1       6.159   1.968   1.405  1.00  0.00     0.107 A 
ATOM      7  N   UNL     1       5.817   3.272   1.357  1.00  0.00    -0.223 NA
ATOM      8  C   UNL     1       4.977   3.710   0.377  1.00  0.00     0.216 A 
ATOM      9  N   UNL     1       4.509   2.817  -0.521  1.00  0.00    -0.302 N 
ATOM     10  C   UNL     1       4.832   1.513  -0.498  1.00  0.00     0.259 A 
ATOM     11  O   UNL     1       4.371   0.705  -1.361  1.00  0.00    -0.269 OA
ATOM     12  C   UNL     1       5.690   1.044   0.495  1.00  0.00     0.069 A 
ATOM     13  C   UNL     1       6.190  -0.213   0.767  1.00  0.00     0.030 A 
ATOM     14  C   UNL     1       6.997  -0.078   1.880  1.00  0.00     0.049 A 
ATOM     15  C   UNL     1       7.757  -1.006   2.602  1.00  0.00     0.150 A 
ATOM     16  H   UNL     1       8.977   1.070   4.865  1.00  0.00     0.212 HD
ATOM     17  H   UNL     1       3.873   3.161  -1.259  1.00  0.00     0.171 HD
ENDROOT
BRANCH  15  18
ATOM     18  N   UNL     1       7.811  -2.238   2.290  1.00  0.00    -0.283 NA
ATOM     19  H   UNL     1       8.662  -2.765   2.016  1.00  0.00     0.189 HD
ENDBRANCH  15  18
BRANCH   8  20
ATOM     20  C   UNL     1       4.598   5.160   0.325  1.00  0.00     0.449 C 
ATOM     21  F   UNL     1       3.365   5.395   0.875  1.00  0.00    -0.163 F 
ATOM     22  F   UNL     1       5.537   5.846   1.103  1.00  0.00    -0.163 F 
ATOM     23  F   UNL     1       4.656   5.597  -0.963  1.00  0.00    -0.163 F 
ENDBRANCH   8  20
TORSDOF 2
ENDMDL
MODEL 3
REMARK VINA RESULT:      -4.8      2.988      3.958
REMARK SMILES Cn1[nH]nc2c3nc(C(F)(F)F)[nH]c(=O)c3cc-2c1=N
REMARK SMILES IDX 1 1 2 2 3 3 4 4 5 5 6 6 7 7 8 8 13 9 14 10 15 11 16 12 17 13
REMARK SMILES IDX 18 14 19 15 20 18 9 20 10 21 11 22 12 23
REMARK H PARENT 3 16 13 17 20 19
ROOT
ATOM      1  C   UNL     1       9.692   5.846   3.864  1.00  0.00     0.175 C 
ATOM      2  N   UNL     1       8.738   4.872   3.325  1.00  0.00    -0.258 N 
ATOM      3  N   UNL     1       7.815   5.228   2.437  1.00  0.00    -0.217 N 
ATOM      4  N   UNL     1       6.939   4.377   1.930  1.00  0.00    -0.157 NA
ATOM      5  C   UNL     1       6.933   3.092   2.289  1.00  0.00     0.122 A 
ATOM      6  C   UNL     1       6.208   1.957   1.992  1.00  0.00     0.107 A 
ATOM      7  N   UNL     1       5.168   1.818   1.144  1.00  0.00    -0.223 NA
ATOM      8  C   UNL     1       4.584   0.595   0.992  1.00  0.00     0.216 A 
ATOM      9  N   UNL     1       5.070  -0.446   1.702  1.00  0.00    -0.302 N 
ATOM     10  C   UNL     1       6.103  -0.338   2.553  1.00  0.00     0.259 A 
ATOM     11  O   UNL     1       6.530  -1.341   3.201  1.00  0.00    -0.269 OA
ATOM     12  C   UNL     1       6.715   0.903   2.723  1.00  0.00     0.069 A 
ATOM     13  C   UNL     1       7.772   1.312   3.509  1.00  0.00     0.030 A 
ATOM     14  C   UNL     1       7.937   2.662   3.267  1.00  0.00     0.049 A 
ATOM     15  C   UNL     1       8.844   3.600   3.777  1.00  0.00     0.150 A 
ATOM     16  H   UNL     1       7.759   6.235   2.104  1.00  0.00     0.212 HD
ATOM     17  H   UNL     1       4.619  -1.368   1.577  1.00  0.00     0.171 HD
ENDROOT
BRANCH  15  18
ATOM     18  N   UNL     1       9.739   3.295   4.626  1.00  0.00    -0.283 NA
ATOM     19  H   UNL     1       9.577   2.927   5.583  1.00  0.00     0.189 HD
ENDBRANCH  15  18
BRANCH   8  20
ATOM     20  C   UNL     1       3.429   0.443   0.049  1.00  0.00     0.449 C 
ATOM     21  F   UNL     1       3.211  -0.864  -0.301  1.00  0.00    -0.163 F 
ATOM     22  F   UNL     1       2.293   0.884   0.735  1.00  0.00    -0.163 F 
ATOM     23  F   UNL     1       3.637   1.221  -1.051  1.00  0.00    -0.163 F 
ENDBRANCH   8  20
TORSDOF 2
ENDMDL
MODEL 4
REMARK VINA RESULT:      -4.7      3.097      3.976
REMARK SMILES Cn1[nH]nc2c3nc(C(F)(F)F)[nH]c(=O)c3cc-2c1=N
REMARK SMILES IDX 1 1 2 2 3 3 4 4 5 5 6 6 7 7 8 8 13 9 14 10 15 11 16 12 17 13
REMARK SMILES IDX 18 14 19 15 20 18 9 20 10 21 11 22 12 23
REMARK H PARENT 3 16 13 17 20 19
ROOT
ATOM      1  C   UNL     1       9.509   4.893   5.218  1.00  0.00     0.175 C 
ATOM      2  N   UNL     1       8.636   4.204   4.263  1.00  0.00    -0.258 N 
ATOM      3  N   UNL     1       7.783   3.266   4.660  1.00  0.00    -0.217 N 
ATOM      4  N   UNL     1       6.981   2.623   3.826  1.00  0.00    -0.157 NA
ATOM      5  C   UNL     1       6.987   2.886   2.518  1.00  0.00     0.122 A 
ATOM      6  C   UNL     1       6.329   2.445   1.390  1.00  0.00     0.107 A 
ATOM      7  N   UNL     1       5.371   1.500   1.287  1.00  0.00    -0.223 NA
ATOM      8  C   UNL     1       4.843   1.209   0.064  1.00  0.00     0.216 A 
ATOM      9  N   UNL     1       5.301   1.881  -1.014  1.00  0.00    -0.302 N 
ATOM     10  C   UNL     1       6.252   2.826  -0.943  1.00  0.00     0.259 A 
ATOM     11  O   UNL     1       6.655   3.435  -1.980  1.00  0.00    -0.269 OA
ATOM     12  C   UNL     1       6.806   3.139   0.297  1.00  0.00     0.069 A 
ATOM     13  C   UNL     1       7.777   4.044   0.675  1.00  0.00     0.030 A 
ATOM     14  C   UNL     1       7.917   3.915   2.043  1.00  0.00     0.049 A 
ATOM     15  C   UNL     1       8.746   4.568   2.963  1.00  0.00     0.150 A 
ATOM     16  H   UNL     1       7.722   3.002   5.687  1.00  0.00     0.212 HD
ATOM     17  H   UNL     1       4.892   1.652  -1.936  1.00  0.00     0.171 HD
ENDROOT
BRANCH  15  18
ATOM     18  N   UNL     1       9.574   5.470   2.620  1.00  0.00    -0.283 NA
ATOM     19  H   UNL     1      10.546   5.318   2.289  1.00  0.00     0.189 HD
ENDBRANCH  15  18
BRANCH   8  20
ATOM     20  C   UNL     1       3.779   0.159  -0.047  1.00  0.00     0.449 C 
ATOM     21  F   UNL     1       2.955   0.364  -1.124  1.00  0.00    -0.163 F 
ATOM     22  F   UNL     1       4.438  -1.057  -0.255  1.00  0.00    -0.163 F 
ATOM     23  F   UNL     1       3.069   0.109   1.115  1.00  0.00    -0.163 F 
ENDBRANCH   8  20
TORSDOF 2
ENDMDL
MODEL 5
REMARK VINA RESULT:      -4.6      2.111      2.875
REMARK SMILES Cn1[nH]nc2c3nc(C(F)(F)F)[nH]c(=O)c3cc-2c1=N
REMARK SMILES IDX 1 1 2 2 3 3 4 4 5 5 6 6 7 7 8 8 13 9 14 10 15 11 16 12 17 13
REMARK SMILES IDX 18 14 19 15 20 18 9 20 10 21 11 22 12 23
REMARK H PARENT 3 16 13 17 20 19
ROOT
ATOM      1  C   UNL     1       9.707  -2.403   4.245  1.00  0.00     0.175 C 
ATOM      2  N   UNL     1       8.917  -1.447   3.463  1.00  0.00    -0.258 N 
ATOM      3  N   UNL     1       8.490  -1.742   2.240  1.00  0.00    -0.217 N 
ATOM      4  N   UNL     1       7.776  -0.905   1.504  1.00  0.00    -0.157 NA
ATOM      5  C   UNL     1       7.441   0.304   1.960  1.00  0.00     0.122 A 
ATOM      6  C   UNL     1       6.741   1.401   1.508  1.00  0.00     0.107 A 
ATOM      7  N   UNL     1       6.119   1.576   0.323  1.00  0.00    -0.223 NA
ATOM      8  C   UNL     1       5.474   2.751   0.069  1.00  0.00     0.216 A 
ATOM      9  N   UNL     1       5.479   3.709   1.020  1.00  0.00    -0.302 N 
ATOM     10  C   UNL     1       6.089   3.564   2.208  1.00  0.00     0.259 A 
ATOM     11  O   UNL     1       6.070   4.489   3.076  1.00  0.00    -0.269 OA
ATOM     12  C   UNL     1       6.754   2.371   2.489  1.00  0.00     0.069 A 
ATOM     13  C   UNL     1       7.454   1.941   3.597  1.00  0.00     0.030 A 
ATOM     14  C   UNL     1       7.895   0.665   3.306  1.00  0.00     0.049 A 
ATOM     15  C   UNL     1       8.649  -0.255   4.046  1.00  0.00     0.150 A 
ATOM     16  H   UNL     1       8.718  -2.687   1.810  1.00  0.00     0.212 HD
ATOM     17  H   UNL     1       4.987   4.595   0.817  1.00  0.00     0.171 HD
ENDROOT
BRANCH  15  18
ATOM     18  N   UNL     1       9.074  -0.006   5.218  1.00  0.00    -0.283 NA
ATOM     19  H   UNL     1       9.921  -0.408   5.662  1.00  0.00     0.189 HD
ENDBRANCH  15  18
BRANCH   8  20
ATOM     20  C   UNL     1       4.785   2.943  -1.248  1.00  0.00     0.449 C 
ATOM     21  F   UNL     1       3.899   1.934  -1.523  1.00  0.00    -0.163 F 
ATOM     22  F   UNL     1       4.047   4.126  -1.144  1.00  0.00    -0.163 F 
ATOM     23  F   UNL     1       5.718   3.063  -2.233  1.00  0.00    -0.163 F 
ENDBRANCH   8  20
TORSDOF 2
ENDMDL
MODEL 6
REMARK VINA RESULT:      -4.1      2.916      3.912
REMARK SMILES Cn1[nH]nc2c3nc(C(F)(F)F)[nH]c(=O)c3cc-2c1=N
REMARK SMILES IDX 1 1 2 2 3 3 4 4 5 5 6 6 7 7 8 8 13 9 14 10 15 11 16 12 17 13
REMARK SMILES IDX 18 14 19 15 20 18 9 20 10 21 11 22 12 23
REMARK H PARENT 3 16 13 17 20 19
ROOT
ATOM      1  C   UNL     1       9.468   4.254   5.218  1.00  0.00     0.175 C 
ATOM      2  N   UNL     1       8.538   3.751   4.203  1.00  0.00    -0.258 N 
ATOM      3  N   UNL     1       8.012   2.534   4.290  1.00  0.00    -0.217 N 
ATOM      4  N   UNL     1       7.170   2.047   3.392  1.00  0.00    -0.157 NA
ATOM      5  C   UNL     1       6.798   2.765   2.331  1.00  0.00     0.122 A 
ATOM      6  C   UNL     1       5.980   2.606   1.233  1.00  0.00     0.107 A 
ATOM      7  N   UNL     1       5.231   1.538   0.886  1.00  0.00    -0.223 NA
ATOM      8  C   UNL     1       4.482   1.584  -0.253  1.00  0.00     0.216 A 
ATOM      9  N   UNL     1       4.516   2.706  -1.003  1.00  0.00    -0.302 N 
ATOM     10  C   UNL     1       5.250   3.784  -0.683  1.00  0.00     0.259 A 
ATOM     11  O   UNL     1       5.253   4.820  -1.416  1.00  0.00    -0.269 OA
ATOM     12  C   UNL     1       6.023   3.759   0.476  1.00  0.00     0.069 A 
ATOM     13  C   UNL     1       6.860   4.693   1.050  1.00  0.00     0.030 A 
ATOM     14  C   UNL     1       7.359   4.114   2.201  1.00  0.00     0.049 A 
ATOM     15  C   UNL     1       8.246   4.585   3.176  1.00  0.00     0.150 A 
ATOM     16  H   UNL     1       8.262   1.904   5.108  1.00  0.00     0.212 HD
ATOM     17  H   UNL     1       3.944   2.729  -1.864  1.00  0.00     0.171 HD
ENDROOT
BRANCH  15  18
ATOM     18  N   UNL     1       8.768   5.743   3.125  1.00  0.00    -0.283 NA
ATOM     19  H   UNL     1       8.259   6.647   3.132  1.00  0.00     0.189 HD
ENDBRANCH  15  18
BRANCH   8  20
ATOM     20  C   UNL     1       3.652   0.396  -0.636  1.00  0.00     0.449 C 
ATOM     21  F   UNL     1       4.400  -0.598  -1.212  1.00  0.00    -0.163 F 
ATOM     22  F   UNL     1       3.121  -0.119   0.551  1.00  0.00    -0.163 F 
ATOM     23  F   UNL     1       2.644   0.796  -1.460  1.00  0.00    -0.163 F 
ENDBRANCH   8  20
TORSDOF 2
ENDMDL
MODEL 7
REMARK VINA RESULT:      -4.1      3.049      3.962
REMARK SMILES Cn1[nH]nc2c3nc(C(F)(F)F)[nH]c(=O)c3cc-2c1=N
REMARK SMILES IDX 1 1 2 2 3 3 4 4 5 5 6 6 7 7 8 8 13 9 14 10 15 11 16 12 17 13
REMARK SMILES IDX 18 14 19 15 20 18 9 20 10 21 11 22 12 23
REMARK H PARENT 3 16 13 17 20 19
ROOT
ATOM      1  C   UNL     1       8.292   5.550   5.218  1.00  0.00     0.175 C 
ATOM      2  N   UNL     1       7.682   4.553   4.334  1.00  0.00    -0.258 N 
ATOM      3  N   UNL     1       6.523   4.786   3.726  1.00  0.00    -0.217 N 
ATOM      4  N   UNL     1       5.943   3.910   2.922  1.00  0.00    -0.157 NA
ATOM      5  C   UNL     1       6.499   2.723   2.674  1.00  0.00     0.122 A 
ATOM      6  C   UNL     1       6.209   1.600   1.929  1.00  0.00     0.107 A 
ATOM      7  N   UNL     1       5.139   1.365   1.140  1.00  0.00    -0.223 NA
ATOM      8  C   UNL     1       5.041   0.175   0.480  1.00  0.00     0.216 A 
ATOM      9  N   UNL     1       6.024  -0.736   0.639  1.00  0.00    -0.302 N 
ATOM     10  C   UNL     1       7.100  -0.529   1.417  1.00  0.00     0.259 A 
ATOM     11  O   UNL     1       8.004  -1.412   1.539  1.00  0.00    -0.269 OA
ATOM     12  C   UNL     1       7.222   0.679   2.100  1.00  0.00     0.069 A 
ATOM     13  C   UNL     1       8.191   1.166   2.952  1.00  0.00     0.030 A 
ATOM     14  C   UNL     1       7.779   2.430   3.328  1.00  0.00     0.049 A 
ATOM     15  C   UNL     1       8.354   3.389   4.171  1.00  0.00     0.150 A 
ATOM     16  H   UNL     1       6.021   5.711   3.876  1.00  0.00     0.212 HD
ATOM     17  H   UNL     1       5.938  -1.633   0.134  1.00  0.00     0.171 HD
ENDROOT
BRANCH  15  18
ATOM     18  N   UNL     1       9.460   3.200   4.769  1.00  0.00    -0.283 NA
ATOM     19  H   UNL     1       9.619   2.580   5.585  1.00  0.00     0.189 HD
ENDBRANCH  15  18
BRANCH   8  20
ATOM     20  C   UNL     1       3.851  -0.084  -0.394  1.00  0.00     0.449 C 
ATOM     21  F   UNL     1       2.917   0.916  -0.313  1.00  0.00    -0.163 F 
ATOM     22  F   UNL     1       4.321  -0.107  -1.711  1.00  0.00    -0.163 F 
ATOM     23  F   UNL     1       3.310  -1.293  -0.075  1.00  0.00    -0.163 F 
ENDBRANCH   8  20
TORSDOF 2
ENDMDL
MODEL 8
REMARK VINA RESULT:      -4.0      4.546      6.150
REMARK SMILES Cn1[nH]nc2c3nc(C(F)(F)F)[nH]c(=O)c3cc-2c1=N
REMARK SMILES IDX 1 1 2 2 3 3 4 4 5 5 6 6 7 7 8 8 13 9 14 10 15 11 16 12 17 13
REMARK SMILES IDX 18 14 19 15 20 18 9 20 10 21 11 22 12 23
REMARK H PARENT 3 16 13 17 20 19
ROOT
ATOM      1  C   UNL     1       9.690   3.356  -4.378  1.00  0.00     0.175 C 
ATOM      2  N   UNL     1       9.201   2.894  -3.075  1.00  0.00    -0.258 N 
ATOM      3  N   UNL     1       9.035   1.601  -2.819  1.00  0.00    -0.217 N 
ATOM      4  N   UNL     1       8.596   1.148  -1.655  1.00  0.00    -0.157 NA
ATOM      5  C   UNL     1       8.290   1.981  -0.659  1.00  0.00     0.122 A 
ATOM      6  C   UNL     1       7.824   1.890   0.635  1.00  0.00     0.107 A 
ATOM      7  N   UNL     1       7.509   0.784   1.342  1.00  0.00    -0.223 NA
ATOM      8  C   UNL     1       7.061   0.911   2.624  1.00  0.00     0.216 A 
ATOM      9  N   UNL     1       6.946   2.150   3.149  1.00  0.00    -0.302 N 
ATOM     10  C   UNL     1       7.252   3.268   2.470  1.00  0.00     0.259 A 
ATOM     11  O   UNL     1       7.131   4.414   2.999  1.00  0.00    -0.269 OA
ATOM     12  C   UNL     1       7.712   3.161   1.158  1.00  0.00     0.069 A 
ATOM     13  C   UNL     1       8.096   4.109   0.233  1.00  0.00     0.030 A 
ATOM     14  C   UNL     1       8.461   3.416  -0.905  1.00  0.00     0.049 A 
ATOM     15  C   UNL     1       8.928   3.848  -2.153  1.00  0.00     0.150 A 
ATOM     16  H   UNL     1       9.258   0.878  -3.565  1.00  0.00     0.212 HD
ATOM     17  H   UNL     1       6.606   2.234   4.121  1.00  0.00     0.171 HD
ENDROOT
BRANCH  15  18
ATOM     18  N   UNL     1       9.099   5.076  -2.433  1.00  0.00    -0.283 NA
ATOM     19  H   UNL     1       8.902   5.531  -3.344  1.00  0.00     0.189 HD
ENDBRANCH  15  18
BRANCH   8  20
ATOM     20  C   UNL     1       6.712  -0.318   3.407  1.00  0.00     0.449 C 
ATOM     21  F   UNL     1       6.649  -0.077   4.755  1.00  0.00    -0.163 F 
ATOM     22  F   UNL     1       5.432  -0.704   2.995  1.00  0.00    -0.163 F 
ATOM     23  F   UNL     1       7.607  -1.305   3.123  1.00  0.00    -0.163 F 
ENDBRANCH   8  20
TORSDOF 2
ENDMDL
MODEL 9
REMARK VINA RESULT:      -4.0      3.363      4.199
REMARK SMILES Cn1[nH]nc2c3nc(C(F)(F)F)[nH]c(=O)c3cc-2c1=N
REMARK SMILES IDX 1 1 2 2 3 3 4 4 5 5 6 6 7 7 8 8 13 9 14 10 15 11 16 12 17 13
REMARK SMILES IDX 18 14 19 15 20 18 9 20 10 21 11 22 12 23
REMARK H PARENT 3 16 13 17 20 19
ROOT
ATOM      1  C   UNL     1       8.543   5.845   4.918  1.00  0.00     0.175 C 
ATOM      2  N   UNL     1       7.910   4.961   3.936  1.00  0.00    -0.258 N 
ATOM      3  N   UNL     1       6.932   4.131   4.282  1.00  0.00    -0.217 N 
ATOM      4  N   UNL     1       6.338   3.319   3.423  1.00  0.00    -0.157 NA
ATOM      5  C   UNL     1       6.697   3.287   2.138  1.00  0.00     0.122 A 
ATOM      6  C   UNL     1       6.329   2.608   0.997  1.00  0.00     0.107 A 
ATOM      7  N   UNL     1       5.378   1.661   0.848  1.00  0.00    -0.223 NA
ATOM      8  C   UNL     1       5.169   1.107  -0.381  1.00  0.00     0.216 A 
ATOM      9  N   UNL     1       5.927   1.527  -1.417  1.00  0.00    -0.302 N 
ATOM     10  C   UNL     1       6.879   2.466  -1.299  1.00  0.00     0.259 A 
ATOM     11  O   UNL     1       7.569   2.833  -2.298  1.00  0.00    -0.269 OA
ATOM     12  C   UNL     1       7.110   3.046  -0.053  1.00  0.00     0.069 A 
ATOM     13  C   UNL     1       8.000   4.013   0.367  1.00  0.00     0.030 A 
ATOM     14  C   UNL     1       7.773   4.190   1.718  1.00  0.00     0.049 A 
ATOM     15  C   UNL     1       8.372   5.031   2.664  1.00  0.00     0.150 A 
ATOM     16  H   UNL     1       6.593   4.100   5.289  1.00  0.00     0.212 HD
ATOM     17  H   UNL     1       5.758   1.100  -2.343  1.00  0.00     0.171 HD
ENDROOT
BRANCH  15  18
ATOM     18  N   UNL     1       9.310   5.837   2.368  1.00  0.00    -0.283 NA
ATOM     19  H   UNL     1       9.766   6.511   3.012  1.00  0.00     0.189 HD
ENDBRANCH  15  18
BRANCH   8  20
ATOM     20  C   UNL     1       4.113   0.056  -0.543  1.00  0.00     0.449 C 
ATOM     21  F   UNL     1       3.286  -0.024   0.547  1.00  0.00    -0.163 F 
ATOM     22  F   UNL     1       3.326   0.445  -1.632  1.00  0.00    -0.163 F 
ATOM     23  F   UNL     1       4.704  -1.143  -0.804  1.00  0.00    -0.163 F 
ENDBRANCH   8  20
TORSDOF 2
ENDMDL
