MODEL 1
REMARK VINA RESULT:      17.4      0.000      0.000
REMARK SMILES CC(=O)OCC12C(OC(C)=O)CC(OC(C)=O)C1(C)C1CCC3(C)C(=CC(=O)OC3c3ccoc3)C1(C)C2OC(C)=O
REMARK SMILES IDX 6 1 7 2 12 3 13 4 18 5 19 6 20 7 21 8 22 9 23 10 24 11 25 12
REMARK SMILES IDX 26 13 27 14 28 15 29 16 30 17 36 18 37 19 38 20 5 21 4 22
REMARK SMILES IDX 2 23 1 24 3 25 8 26 9 27 10 28 11 29 39 30 40 31 41 32 42 33
REMARK SMILES IDX 14 34 15 35 16 36 17 37 31 38 32 39 35 40 33 41 34 42
REMARK H PARENT
ROOT
ATOM      1  C   UNL     1       5.666  -0.137   0.897  1.00  0.00     0.089 C 
ATOM      2  C   UNL     1       4.586   0.014   1.986  1.00  0.00     0.194 C 
ATOM      3  C   UNL     1       3.299  -0.101   1.275  1.00  0.00     0.092 C 
ATOM      4  C   UNL     1       3.553   0.486  -0.066  1.00  0.00     0.187 C 
ATOM      5  C   UNL     1       5.059   0.465  -0.338  1.00  0.00     0.025 C 
ATOM      6  C   UNL     1       5.228  -0.184  -1.619  1.00  0.00     0.017 C 
ATOM      7  C   UNL     1       5.554   1.831  -0.139  1.00  0.00     0.013 C 
ATOM      8  C   UNL     1       5.209   3.024  -0.867  1.00  0.00     0.006 C 
ATOM      9  C   UNL     1       5.341   4.241   0.104  1.00  0.00     0.016 C 
ATOM     10  C   UNL     1       6.574   4.090   0.966  1.00  0.00     0.031 C 
ATOM     11  C   UNL     1       6.293   3.774   2.409  1.00  0.00     0.020 C 
ATOM     12  C   UNL     1       7.429   3.085   0.237  1.00  0.00    -0.043 C 
ATOM     13  C   UNL     1       8.459   3.456  -0.518  1.00  0.00     0.094 C 
ATOM     14  C   UNL     1       8.732   4.883  -0.641  1.00  0.00     0.331 C 
ATOM     15  O   UNL     1       9.727   5.265  -1.356  1.00  0.00    -0.247 OA
ATOM     16  O   UNL     1       7.979   5.837  -0.029  1.00  0.00    -0.453 OA
ATOM     17  C   UNL     1       7.242   5.438   1.090  1.00  0.00     0.220 C 
ATOM     18  C   UNL     1       7.022   1.672   0.213  1.00  0.00     0.031 C 
ATOM     19  C   UNL     1       7.878   0.907  -0.770  1.00  0.00     0.020 C 
ATOM     20  C   UNL     1       6.861   0.753   1.313  1.00  0.00     0.200 C 
ENDROOT
BRANCH   1  21
ATOM     21  C   UNL     1       5.943  -1.589   0.878  1.00  0.00     0.248 C 
BRANCH  21  22
ATOM     22  O   UNL     1       5.464  -2.192  -0.346  1.00  0.00    -0.465 OA
BRANCH  22  23
ATOM     23  C   UNL     1       4.504  -3.187  -0.295  1.00  0.00     0.302 C 
ATOM     24  C   UNL     1       3.202  -2.913  -0.941  1.00  0.00     0.139 C 
ATOM     25  O   UNL     1       4.746  -4.276   0.282  1.00  0.00    -0.253 OA
ENDBRANCH  22  23
ENDBRANCH  21  22
ENDBRANCH   1  21
BRANCH   2  26
ATOM     26  O   UNL     1       4.774  -0.974   2.988  1.00  0.00    -0.462 OA
BRANCH  26  27
ATOM     27  C   UNL     1       6.024  -1.288   3.486  1.00  0.00     0.302 C 
ATOM     28  C   UNL     1       7.066  -1.881   2.622  1.00  0.00     0.139 C 
ATOM     29  O   UNL     1       6.333  -1.085   4.695  1.00  0.00    -0.253 OA
ENDBRANCH  26  27
ENDBRANCH   2  26
BRANCH  20  30
ATOM     30  O   UNL     1       7.991  -0.076   1.574  1.00  0.00    -0.461 OA
BRANCH  30  31
ATOM     31  C   UNL     1       8.671   0.091   2.762  1.00  0.00     0.302 C 
ATOM     32  C   UNL     1       9.733  -0.928   3.072  1.00  0.00     0.139 C 
ATOM     33  O   UNL     1       8.460   1.021   3.579  1.00  0.00    -0.253 OA
ENDBRANCH  30  31
ENDBRANCH  20  30
BRANCH   4  34
ATOM     34  O   UNL     1       2.814  -0.153  -1.093  1.00  0.00    -0.462 OA
BRANCH  34  35
ATOM     35  C   UNL     1       2.074   0.584  -1.964  1.00  0.00     0.302 C 
ATOM     36  C   UNL     1       1.380   1.860  -1.557  1.00  0.00     0.139 C 
ATOM     37  O   UNL     1       1.918   0.242  -3.182  1.00  0.00    -0.253 OA
ENDBRANCH  34  35
ENDBRANCH   4  34
BRANCH  17  38
ATOM     38  C   UNL     1       8.065   5.581   2.327  1.00  0.00     0.032 A 
ATOM     39  C   UNL     1       9.415   5.756   2.493  1.00  0.00     0.049 A 
ATOM     40  C   UNL     1       7.550   5.562   3.626  1.00  0.00     0.202 A 
ATOM     41  C   UNL     1       9.669   5.837   3.847  1.00  0.00     0.195 A 
ATOM     42  O   UNL     1       8.530   5.717   4.491  1.00  0.00    -0.472 OA
ENDBRANCH  17  38
TORSDOF 10
ENDMDL
