MODEL 1
REMARK VINA RESULT:      10.6      0.000      0.000
REMARK SMILES Cc1cccc(=Nc2nc(-c3cn(Cc4ccc(N)cc4)c4ccccc34)cs2)[nH]1
REMARK SMILES IDX 11 1 12 2 13 3 22 4 23 5 24 6 25 7 26 8 27 9 10 10 8 11 9 12
REMARK SMILES IDX 29 13 28 14 7 15 6 16 2 17 3 18 30 19 4 20 5 21 1 22 14 24
REMARK SMILES IDX 15 25 16 26 21 27 17 28 20 29 18 30 19 31
REMARK H PARENT 30 23 19 32 19 33
ROOT
ATOM      1  C   UNL     1       8.198   2.605   2.281  1.00  0.00     0.027 A 
ATOM      2  C   UNL     1       7.679   3.417   3.264  1.00  0.00     0.097 A 
ATOM      3  N   UNL     1       7.714   4.708   2.869  1.00  0.00    -0.342 N 
ATOM      4  C   UNL     1       8.247   4.778   1.642  1.00  0.00     0.049 A 
ATOM      5  C   UNL     1       8.525   5.816   0.754  1.00  0.00     0.027 A 
ATOM      6  C   UNL     1       9.097   5.531  -0.476  1.00  0.00     0.002 A 
ATOM      7  C   UNL     1       9.404   4.239  -0.859  1.00  0.00     0.001 A 
ATOM      8  C   UNL     1       9.125   3.196   0.030  1.00  0.00     0.011 A 
ATOM      9  C   UNL     1       8.554   3.478   1.259  1.00  0.00     0.009 A 
ENDROOT
BRANCH   1  10
ATOM     10  C   UNL     1       8.348   1.132   2.299  1.00  0.00     0.086 A 
ATOM     11  C   UNL     1       7.914  -0.833   1.307  1.00  0.00     0.211 A 
ATOM     12  N   UNL     1       7.862   0.316   1.396  1.00  0.00    -0.218 NA
ATOM     13  S   UNL     1       8.920  -1.269   2.860  1.00  0.00    -0.103 S 
ATOM     14  C   UNL     1       9.036   0.503   3.312  1.00  0.00     0.097 A 
BRANCH  11  15
ATOM     15  N   UNL     1       7.486  -1.904   0.458  1.00  0.00    -0.202 NA
BRANCH  15  16
ATOM     16  C   UNL     1       6.300  -1.991  -0.008  1.00  0.00     0.133 A 
ATOM     17  C   UNL     1       4.346  -0.825  -0.647  1.00  0.00     0.013 A 
ATOM     18  C   UNL     1       3.677  -1.972  -1.016  1.00  0.00     0.021 A 
ATOM     19  N   UNL     1       5.608  -0.849  -0.164  1.00  0.00    -0.344 N 
ATOM     20  C   UNL     1       4.382  -3.164  -0.859  1.00  0.00     0.006 A 
ATOM     21  C   UNL     1       5.682  -3.174  -0.359  1.00  0.00     0.047 A 
ATOM     22  C   UNL     1       3.651   0.495  -0.788  1.00  0.00     0.064 C 
ATOM     23  H   UNL     1       6.054   0.080   0.098  1.00  0.00     0.168 HD
ENDBRANCH  15  16
ENDBRANCH  11  15
ENDBRANCH   1  10
BRANCH   3  24
ATOM     24  C   UNL     1       7.250   5.813   3.656  1.00  0.00     0.157 C 
BRANCH  24  25
ATOM     25  C   UNL     1       5.781   5.806   3.851  1.00  0.00    -0.028 A 
ATOM     26  C   UNL     1       5.175   5.842   5.090  1.00  0.00     0.008 A 
ATOM     27  C   UNL     1       4.961   5.763   2.741  1.00  0.00     0.008 A 
ATOM     28  C   UNL     1       3.788   5.834   5.214  1.00  0.00     0.026 A 
ATOM     29  C   UNL     1       3.581   5.754   2.836  1.00  0.00     0.026 A 
ATOM     30  C   UNL     1       2.974   5.789   4.075  1.00  0.00     0.031 A 
BRANCH  30  31
ATOM     31  N   UNL     1       1.548   5.780   4.188  1.00  0.00    -0.399 N 
ATOM     32  H   UNL     1       1.059   6.130   5.032  1.00  0.00     0.156 HD
ATOM     33  H   UNL     1       0.978   5.413   3.401  1.00  0.00     0.156 HD
ENDBRANCH  30  31
ENDBRANCH  24  25
ENDBRANCH   3  24
TORSDOF 6
ENDMDL
MODEL 2
REMARK VINA RESULT:      12.9      2.600      4.045
REMARK SMILES Cc1cccc(=Nc2nc(-c3cn(Cc4ccc(N)cc4)c4ccccc34)cs2)[nH]1
REMARK SMILES IDX 11 1 12 2 13 3 22 4 23 5 24 6 25 7 26 8 27 9 10 10 8 11 9 12
REMARK SMILES IDX 29 13 28 14 7 15 6 16 2 17 3 18 30 19 4 20 5 21 1 22 14 24
REMARK SMILES IDX 15 25 16 26 21 27 17 28 20 29 18 30 19 31
REMARK H PARENT 30 23 19 32 19 33
ROOT
ATOM      1  C   UNL     1       6.402   2.684   2.681  1.00  0.00     0.027 A 
ATOM      2  C   UNL     1       5.418   3.602   2.972  1.00  0.00     0.097 A 
ATOM      3  N   UNL     1       5.861   4.482   3.896  1.00  0.00    -0.342 N 
ATOM      4  C   UNL     1       7.121   4.172   4.230  1.00  0.00     0.049 A 
ATOM      5  C   UNL     1       8.061   4.712   5.106  1.00  0.00     0.027 A 
ATOM      6  C   UNL     1       9.313   4.127   5.212  1.00  0.00     0.002 A 
ATOM      7  C   UNL     1       9.668   3.016   4.471  1.00  0.00     0.001 A 
ATOM      8  C   UNL     1       8.726   2.474   3.590  1.00  0.00     0.011 A 
ATOM      9  C   UNL     1       7.475   3.055   3.483  1.00  0.00     0.009 A 
ENDROOT
BRANCH   1  10
ATOM     10  C   UNL     1       6.340   1.552   1.729  1.00  0.00     0.086 A 
ATOM     11  C   UNL     1       6.416   0.859  -0.405  1.00  0.00     0.211 A 
ATOM     12  N   UNL     1       6.449   1.658   0.426  1.00  0.00    -0.218 NA
ATOM     13  S   UNL     1       6.152  -0.718   0.624  1.00  0.00    -0.103 S 
ATOM     14  C   UNL     1       6.153   0.263   2.172  1.00  0.00     0.097 A 
BRANCH  11  15
ATOM     15  N   UNL     1       6.508   0.727  -1.828  1.00  0.00    -0.202 NA
BRANCH  15  16
ATOM     16  C   UNL     1       7.508   1.150  -2.502  1.00  0.00     0.133 A 
ATOM     17  C   UNL     1       8.767   3.029  -3.187  1.00  0.00     0.013 A 
ATOM     18  C   UNL     1       9.654   2.276  -3.925  1.00  0.00     0.021 A 
ATOM     19  N   UNL     1       7.739   2.474  -2.507  1.00  0.00    -0.344 N 
ATOM     20  C   UNL     1       9.426   0.900  -3.929  1.00  0.00     0.006 A 
ATOM     21  C   UNL     1       8.362   0.343  -3.224  1.00  0.00     0.047 A 
ATOM     22  C   UNL     1       8.949   4.516  -3.135  1.00  0.00     0.064 C 
ATOM     23  H   UNL     1       7.100   3.126  -1.961  1.00  0.00     0.168 HD
ENDBRANCH  15  16
ENDBRANCH  11  15
ENDBRANCH   1  10
BRANCH   3  24
ATOM     24  C   UNL     1       5.086   5.568   4.423  1.00  0.00     0.157 C 
BRANCH  24  25
ATOM     25  C   UNL     1       3.720   5.631   3.854  1.00  0.00    -0.028 A 
ATOM     26  C   UNL     1       2.572   5.570   4.618  1.00  0.00     0.008 A 
ATOM     27  C   UNL     1       3.570   5.758   2.488  1.00  0.00     0.008 A 
ATOM     28  C   UNL     1       1.311   5.634   4.029  1.00  0.00     0.026 A 
ATOM     29  C   UNL     1       2.330   5.824   1.878  1.00  0.00     0.026 A 
ATOM     30  C   UNL     1       1.182   5.762   2.641  1.00  0.00     0.031 A 
BRANCH  30  31
ATOM     31  N   UNL     1      -0.107   5.830   2.023  1.00  0.00    -0.399 N 
ATOM     32  H   UNL     1      -0.497   6.717   1.656  1.00  0.00     0.156 HD
ATOM     33  H   UNL     1      -0.675   4.965   1.937  1.00  0.00     0.156 HD
ENDBRANCH  30  31
ENDBRANCH  24  25
ENDBRANCH   3  24
TORSDOF 6
ENDMDL
