MODEL 1
REMARK VINA RESULT:      -0.4      0.000      0.000
REMARK SMILES COc1ccc(-c2nc(-c3ccccc3OC)ns2)cc1
REMARK SMILES IDX 7 1 8 2 9 3 18 4 19 5 6 6 3 7 4 8 21 9 5 10 20 11 2 12 1 13
REMARK SMILES IDX 10 14 11 15 15 16 12 17 14 18 13 19 16 20 17 21
REMARK H PARENT
ROOT
ATOM      1  C   UNL     1       7.462   1.801  -0.332  1.00  0.00     0.144 A 
ATOM      2  N   UNL     1       7.742   1.036   0.510  1.00  0.00    -0.214 NA
ATOM      3  C   UNL     1       8.730   0.233   0.662  1.00  0.00     0.177 A 
ATOM      4  N   UNL     1       9.650   0.335  -0.458  1.00  0.00    -0.170 NA
ATOM      5  S   UNL     1       8.896   1.578  -1.510  1.00  0.00    -0.013 S 
ENDROOT
BRANCH   1   6
ATOM      6  C   UNL     1       6.434   2.775  -0.695  1.00  0.00     0.012 A 
ATOM      7  C   UNL     1       4.490   4.631  -1.259  1.00  0.00     0.118 A 
ATOM      8  C   UNL     1       5.076   3.925  -2.281  1.00  0.00     0.047 A 
ATOM      9  C   UNL     1       4.866   4.417   0.041  1.00  0.00     0.047 A 
ATOM     10  C   UNL     1       6.053   2.994  -1.992  1.00  0.00     0.015 A 
ATOM     11  C   UNL     1       5.853   3.476   0.327  1.00  0.00     0.015 A 
BRANCH   7  12
ATOM     12  O   UNL     1       3.509   5.571  -1.508  1.00  0.00    -0.497 OA
ATOM     13  C   UNL     1       2.374   5.750  -0.709  1.00  0.00     0.278 C 
ENDBRANCH   7  12
ENDBRANCH   1   6
BRANCH   3  14
ATOM     14  C   UNL     1       9.040  -0.705   1.728  1.00  0.00     0.062 A 
ATOM     15  C   UNL     1       9.446  -2.000   1.499  1.00  0.00     0.016 A 
ATOM     16  C   UNL     1       8.928  -0.291   3.036  1.00  0.00     0.129 A 
ATOM     17  C   UNL     1       9.740  -2.892   2.509  1.00  0.00     0.001 A 
ATOM     18  C   UNL     1       9.223  -1.184   4.054  1.00  0.00     0.047 A 
ATOM     19  C   UNL     1       9.626  -2.472   3.833  1.00  0.00     0.004 A 
BRANCH  16  20
ATOM     20  O   UNL     1       8.520   1.012   3.286  1.00  0.00    -0.496 OA
ATOM     21  C   UNL     1       9.476   2.050   3.450  1.00  0.00     0.278 C 
ENDBRANCH  16  20
ENDBRANCH   3  14
TORSDOF 4
ENDMDL
MODEL 2
REMARK VINA RESULT:       0.1      2.462      7.792
REMARK SMILES COc1ccc(-c2nc(-c3ccccc3OC)ns2)cc1
REMARK SMILES IDX 7 1 8 2 9 3 18 4 19 5 6 6 3 7 4 8 21 9 5 10 20 11 2 12 1 13
REMARK SMILES IDX 10 14 11 15 15 16 12 17 14 18 13 19 16 20 17 21
REMARK H PARENT
ROOT
ATOM      1  C   UNL     1       7.233   1.986   2.923  1.00  0.00     0.144 A 
ATOM      2  N   UNL     1       6.507   2.439   2.122  1.00  0.00    -0.214 NA
ATOM      3  C   UNL     1       6.222   3.643   1.788  1.00  0.00     0.177 A 
ATOM      4  N   UNL     1       6.975   4.590   2.594  1.00  0.00    -0.170 NA
ATOM      5  S   UNL     1       7.948   3.540   3.676  1.00  0.00    -0.013 S 
ENDROOT
BRANCH   1   6
ATOM      6  C   UNL     1       7.695   0.704   3.451  1.00  0.00     0.012 A 
ATOM      7  C   UNL     1       8.553  -1.752   4.333  1.00  0.00     0.118 A 
ATOM      8  C   UNL     1       8.451  -0.706   5.218  1.00  0.00     0.047 A 
ATOM      9  C   UNL     1       8.228  -1.580   3.013  1.00  0.00     0.047 A 
ATOM     10  C   UNL     1       8.020   0.526   4.770  1.00  0.00     0.015 A 
ATOM     11  C   UNL     1       7.794  -0.334   2.566  1.00  0.00     0.015 A 
BRANCH   7  12
ATOM     12  O   UNL     1       8.980  -3.000   4.743  1.00  0.00    -0.497 OA
ATOM     13  C   UNL     1       9.740  -3.867   3.951  1.00  0.00     0.278 C 
ENDBRANCH   7  12
ENDBRANCH   1   6
BRANCH   3  14
ATOM     14  C   UNL     1       5.310   4.163   0.783  1.00  0.00     0.062 A 
ATOM     15  C   UNL     1       4.228   4.958   1.084  1.00  0.00     0.016 A 
ATOM     16  C   UNL     1       5.529   3.854  -0.541  1.00  0.00     0.129 A 
ATOM     17  C   UNL     1       3.362   5.452   0.131  1.00  0.00     0.001 A 
ATOM     18  C   UNL     1       4.661   4.348  -1.501  1.00  0.00     0.047 A 
ATOM     19  C   UNL     1       3.584   5.139  -1.208  1.00  0.00     0.004 A 
BRANCH  16  20
ATOM     20  O   UNL     1       6.617   3.053  -0.864  1.00  0.00    -0.496 OA
ATOM     21  C   UNL     1       6.505   1.637  -0.839  1.00  0.00     0.278 C 
ENDBRANCH  16  20
ENDBRANCH   3  14
TORSDOF 4
ENDMDL
MODEL 3
REMARK VINA RESULT:       0.7      3.272      5.069
REMARK SMILES COc1ccc(-c2nc(-c3ccccc3OC)ns2)cc1
REMARK SMILES IDX 7 1 8 2 9 3 18 4 19 5 6 6 3 7 4 8 21 9 5 10 20 11 2 12 1 13
REMARK SMILES IDX 10 14 11 15 15 16 12 17 14 18 13 19 16 20 17 21
REMARK H PARENT
ROOT
ATOM      1  C   UNL     1       7.206   4.017   0.823  1.00  0.00     0.144 A 
ATOM      2  N   UNL     1       7.504   3.488  -0.180  1.00  0.00    -0.214 NA
ATOM      3  C   UNL     1       8.634   3.158  -0.687  1.00  0.00     0.177 A 
ATOM      4  N   UNL     1       9.723   3.539   0.198  1.00  0.00    -0.170 NA
ATOM      5  S   UNL     1       8.886   4.301   1.590  1.00  0.00    -0.013 S 
ENDROOT
BRANCH   1   6
ATOM      6  C   UNL     1       6.035   4.472   1.571  1.00  0.00     0.012 A 
ATOM      7  C   UNL     1       3.788   5.367   2.873  1.00  0.00     0.118 A 
ATOM      8  C   UNL     1       4.794   4.760   3.585  1.00  0.00     0.047 A 
ATOM      9  C   UNL     1       3.897   5.531   1.517  1.00  0.00     0.047 A 
ATOM     10  C   UNL     1       5.920   4.312   2.926  1.00  0.00     0.015 A 
ATOM     11  C   UNL     1       5.037   5.076   0.857  1.00  0.00     0.015 A 
BRANCH   7  12
ATOM     12  O   UNL     1       2.646   5.829   3.496  1.00  0.00    -0.497 OA
ATOM     13  C   UNL     1       2.094   5.254   4.647  1.00  0.00     0.278 C 
ENDBRANCH   7  12
ENDBRANCH   1   6
BRANCH   3  14
ATOM     14  C   UNL     1       8.960   2.500  -1.940  1.00  0.00     0.062 A 
ATOM     15  C   UNL     1       9.232   3.183  -3.104  1.00  0.00     0.016 A 
ATOM     16  C   UNL     1       9.004   1.124  -1.981  1.00  0.00     0.129 A 
ATOM     17  C   UNL     1       9.541   2.560  -4.294  1.00  0.00     0.001 A 
ATOM     18  C   UNL     1       9.315   0.494  -3.175  1.00  0.00     0.047 A 
ATOM     19  C   UNL     1       9.586   1.168  -4.334  1.00  0.00     0.004 A 
BRANCH  16  20
ATOM     20  O   UNL     1       8.734   0.418  -0.817  1.00  0.00    -0.496 OA
ATOM     21  C   UNL     1       9.407   0.733   0.394  1.00  0.00     0.278 C 
ENDBRANCH  16  20
ENDBRANCH   3  14
TORSDOF 4
ENDMDL
MODEL 4
REMARK VINA RESULT:       1.2      2.976      7.860
REMARK SMILES COc1ccc(-c2nc(-c3ccccc3OC)ns2)cc1
REMARK SMILES IDX 7 1 8 2 9 3 18 4 19 5 6 6 3 7 4 8 21 9 5 10 20 11 2 12 1 13
REMARK SMILES IDX 10 14 11 15 15 16 12 17 14 18 13 19 16 20 17 21
REMARK H PARENT
ROOT
ATOM      1  C   UNL     1       7.489   1.825   3.654  1.00  0.00     0.144 A 
ATOM      2  N   UNL     1       7.073   2.453   2.756  1.00  0.00    -0.214 NA
ATOM      3  C   UNL     1       6.639   3.656   2.662  1.00  0.00     0.177 A 
ATOM      4  N   UNL     1       6.696   4.322   3.953  1.00  0.00    -0.170 NA
ATOM      5  S   UNL     1       7.370   3.068   5.045  1.00  0.00    -0.013 S 
ENDROOT
BRANCH   1   6
ATOM      6  C   UNL     1       8.016   0.500   3.974  1.00  0.00     0.012 A 
ATOM      7  C   UNL     1       8.914  -2.007   4.650  1.00  0.00     0.118 A 
ATOM      8  C   UNL     1       9.628  -1.242   3.760  1.00  0.00     0.047 A 
ATOM      9  C   UNL     1       7.756  -1.528   5.204  1.00  0.00     0.047 A 
ATOM     10  C   UNL     1       9.173   0.016   3.423  1.00  0.00     0.015 A 
ATOM     11  C   UNL     1       7.301  -0.257   4.861  1.00  0.00     0.015 A 
BRANCH   7  12
ATOM     12  O   UNL     1       9.337  -3.271   5.012  1.00  0.00    -0.497 OA
ATOM     13  C   UNL     1       9.731  -4.256   4.100  1.00  0.00     0.278 C 
ENDBRANCH   7  12
ENDBRANCH   1   6
BRANCH   3  14
ATOM     14  C   UNL     1       6.130   4.399   1.523  1.00  0.00     0.062 A 
ATOM     15  C   UNL     1       4.894   5.006   1.508  1.00  0.00     0.016 A 
ATOM     16  C   UNL     1       6.912   4.512   0.396  1.00  0.00     0.129 A 
ATOM     17  C   UNL     1       4.409   5.711   0.427  1.00  0.00     0.001 A 
ATOM     18  C   UNL     1       6.429   5.221  -0.693  1.00  0.00     0.047 A 
ATOM     19  C   UNL     1       5.201   5.825  -0.714  1.00  0.00     0.004 A 
BRANCH  16  20
ATOM     20  O   UNL     1       8.162   3.908   0.392  1.00  0.00    -0.496 OA
ATOM     21  C   UNL     1       9.200   4.398  -0.444  1.00  0.00     0.278 C 
ENDBRANCH  16  20
ENDBRANCH   3  14
TORSDOF 4
ENDMDL
MODEL 5
REMARK VINA RESULT:       1.4      2.710      7.740
REMARK SMILES COc1ccc(-c2nc(-c3ccccc3OC)ns2)cc1
REMARK SMILES IDX 7 1 8 2 9 3 18 4 19 5 6 6 3 7 4 8 21 9 5 10 20 11 2 12 1 13
REMARK SMILES IDX 10 14 11 15 15 16 12 17 14 18 13 19 16 20 17 21
REMARK H PARENT
ROOT
ATOM      1  C   UNL     1       6.822   2.009   2.758  1.00  0.00     0.144 A 
ATOM      2  N   UNL     1       6.407   2.598   1.834  1.00  0.00    -0.214 NA
ATOM      3  C   UNL     1       5.883   3.761   1.707  1.00  0.00     0.177 A 
ATOM      4  N   UNL     1       5.816   4.435   2.993  1.00  0.00    -0.170 NA
ATOM      5  S   UNL     1       6.529   3.244   4.130  1.00  0.00    -0.013 S 
ENDROOT
BRANCH   1   6
ATOM      6  C   UNL     1       7.437   0.732   3.117  1.00  0.00     0.012 A 
ATOM      7  C   UNL     1       8.653  -1.610   3.878  1.00  0.00     0.118 A 
ATOM      8  C   UNL     1       7.760  -1.613   2.835  1.00  0.00     0.047 A 
ATOM      9  C   UNL     1       8.943  -0.448   4.543  1.00  0.00     0.047 A 
ATOM     10  C   UNL     1       7.151  -0.434   2.456  1.00  0.00     0.015 A 
ATOM     11  C   UNL     1       8.325   0.740   4.157  1.00  0.00     0.015 A 
BRANCH   7  12
ATOM     12  O   UNL     1       9.282  -2.770   4.286  1.00  0.00    -0.497 OA
ATOM     13  C   UNL     1       9.617  -3.823   3.429  1.00  0.00     0.278 C 
ENDBRANCH   7  12
ENDBRANCH   1   6
BRANCH   3  14
ATOM     14  C   UNL     1       5.378   4.456   0.535  1.00  0.00     0.062 A 
ATOM     15  C   UNL     1       4.045   4.741   0.342  1.00  0.00     0.016 A 
ATOM     16  C   UNL     1       6.265   4.856  -0.438  1.00  0.00     0.129 A 
ATOM     17  C   UNL     1       3.564   5.400  -0.769  1.00  0.00     0.001 A 
ATOM     18  C   UNL     1       5.786   5.520  -1.556  1.00  0.00     0.047 A 
ATOM     19  C   UNL     1       4.462   5.805  -1.753  1.00  0.00     0.004 A 
BRANCH  16  20
ATOM     20  O   UNL     1       7.614   4.579  -0.260  1.00  0.00    -0.496 OA
ATOM     21  C   UNL     1       8.460   4.355  -1.380  1.00  0.00     0.278 C 
ENDBRANCH  16  20
ENDBRANCH   3  14
TORSDOF 4
ENDMDL
MODEL 6
REMARK VINA RESULT:       1.9      1.614      2.427
REMARK SMILES COc1ccc(-c2nc(-c3ccccc3OC)ns2)cc1
REMARK SMILES IDX 7 1 8 2 9 3 18 4 19 5 6 6 3 7 4 8 21 9 5 10 20 11 2 12 1 13
REMARK SMILES IDX 10 14 11 15 15 16 12 17 14 18 13 19 16 20 17 21
REMARK H PARENT
ROOT
ATOM      1  C   UNL     1       7.193   3.369   0.769  1.00  0.00     0.144 A 
ATOM      2  N   UNL     1       7.446   2.431   1.424  1.00  0.00    -0.214 NA
ATOM      3  C   UNL     1       8.539   1.996   1.936  1.00  0.00     0.177 A 
ATOM      4  N   UNL     1       9.645   2.879   1.605  1.00  0.00    -0.170 NA
ATOM      5  S   UNL     1       8.876   4.165   0.618  1.00  0.00    -0.013 S 
ENDROOT
BRANCH   1   6
ATOM      6  C   UNL     1       6.069   4.030   0.107  1.00  0.00     0.012 A 
ATOM      7  C   UNL     1       3.997   5.225  -1.242  1.00  0.00     0.118 A 
ATOM      8  C   UNL     1       4.129   5.414   0.112  1.00  0.00     0.047 A 
ATOM      9  C   UNL     1       4.892   4.446  -1.926  1.00  0.00     0.047 A 
ATOM     10  C   UNL     1       5.171   4.811   0.785  1.00  0.00     0.015 A 
ATOM     11  C   UNL     1       5.943   3.839  -1.242  1.00  0.00     0.015 A 
BRANCH   7  12
ATOM     12  O   UNL     1       2.966   5.812  -1.951  1.00  0.00    -0.497 OA
ATOM     13  C   UNL     1       1.610   5.598  -1.682  1.00  0.00     0.278 C 
ENDBRANCH   7  12
ENDBRANCH   1   6
BRANCH   3  14
ATOM     14  C   UNL     1       8.810   0.821   2.746  1.00  0.00     0.062 A 
ATOM     15  C   UNL     1       8.914   0.856   4.117  1.00  0.00     0.016 A 
ATOM     16  C   UNL     1       8.973  -0.396   2.123  1.00  0.00     0.129 A 
ATOM     17  C   UNL     1       9.172  -0.258   4.887  1.00  0.00     0.001 A 
ATOM     18  C   UNL     1       9.232  -1.518   2.893  1.00  0.00     0.047 A 
ATOM     19  C   UNL     1       9.337  -1.489   4.256  1.00  0.00     0.004 A 
BRANCH  16  20
ATOM     20  O   UNL     1       8.871  -0.452   0.739  1.00  0.00    -0.496 OA
ATOM     21  C   UNL     1       9.208   0.676  -0.057  1.00  0.00     0.278 C 
ENDBRANCH  16  20
ENDBRANCH   3  14
TORSDOF 4
ENDMDL
MODEL 7
REMARK VINA RESULT:       2.5      2.597      7.785
REMARK SMILES COc1ccc(-c2nc(-c3ccccc3OC)ns2)cc1
REMARK SMILES IDX 7 1 8 2 9 3 18 4 19 5 6 6 3 7 4 8 21 9 5 10 20 11 2 12 1 13
REMARK SMILES IDX 10 14 11 15 15 16 12 17 14 18 13 19 16 20 17 21
REMARK H PARENT
ROOT
ATOM      1  C   UNL     1       6.404   2.093   2.385  1.00  0.00     0.144 A 
ATOM      2  N   UNL     1       5.988   2.659   1.446  1.00  0.00    -0.214 NA
ATOM      3  C   UNL     1       5.565   3.856   1.269  1.00  0.00     0.177 A 
ATOM      4  N   UNL     1       5.638   4.613   2.508  1.00  0.00    -0.170 NA
ATOM      5  S   UNL     1       6.308   3.434   3.683  1.00  0.00    -0.013 S 
ENDROOT
BRANCH   1   6
ATOM      6  C   UNL     1       6.920   0.789   2.797  1.00  0.00     0.012 A 
ATOM      7  C   UNL     1       7.935  -1.676   3.459  1.00  0.00     0.118 A 
ATOM      8  C   UNL     1       7.245  -0.948   4.397  1.00  0.00     0.047 A 
ATOM      9  C   UNL     1       8.121  -1.183   2.194  1.00  0.00     0.047 A 
ATOM     10  C   UNL     1       6.738   0.290   4.059  1.00  0.00     0.015 A 
ATOM     11  C   UNL     1       7.606   0.067   1.858  1.00  0.00     0.015 A 
BRANCH   7  12
ATOM     12  O   UNL     1       8.459  -2.919   3.758  1.00  0.00    -0.497 OA
ATOM     13  C   UNL     1       9.731  -3.348   3.366  1.00  0.00     0.278 C 
ENDBRANCH   7  12
ENDBRANCH   1   6
BRANCH   3  14
ATOM     14  C   UNL     1       5.054   4.520   0.082  1.00  0.00     0.062 A 
ATOM     15  C   UNL     1       3.763   4.982  -0.028  1.00  0.00     0.016 A 
ATOM     16  C   UNL     1       5.894   4.705  -0.993  1.00  0.00     0.129 A 
ATOM     17  C   UNL     1       3.277   5.613  -1.154  1.00  0.00     0.001 A 
ATOM     18  C   UNL     1       5.410   5.338  -2.126  1.00  0.00     0.047 A 
ATOM     19  C   UNL     1       4.127   5.799  -2.242  1.00  0.00     0.004 A 
BRANCH  16  20
ATOM     20  O   UNL     1       7.201   4.246  -0.900  1.00  0.00    -0.496 OA
ATOM     21  C   UNL     1       8.050   4.245  -2.039  1.00  0.00     0.278 C 
ENDBRANCH  16  20
ENDBRANCH   3  14
TORSDOF 4
ENDMDL
