MODEL 1
REMARK VINA RESULT:       3.7      0.000      0.000
REMARK SMILES CC(C)N1CCC(N=c2[nH]c(=Nc3ccccc3S(C)(=O)=O)[nH]n3c(C#N)cnc23)CC1
REMARK SMILES IDX 9 1 10 2 11 3 23 4 24 5 25 6 28 7 29 8 30 9 8 12 7 13 4 14
REMARK SMILES IDX 5 15 32 16 6 17 31 18 2 19 1 20 3 21 12 22 13 23 14 24 18 25
REMARK SMILES IDX 15 26 17 27 16 28 19 29 20 30 21 31 22 32 26 33 27 34
REMARK H PARENT 10 10 23 11
ROOT
ATOM      1  C   UNL     1       7.353   3.893   2.199  1.00  0.00     0.174 A 
ATOM      2  N   UNL     1       8.454   3.684   1.419  1.00  0.00    -0.306 N 
ATOM      3  C   UNL     1       8.427   3.903   0.088  1.00  0.00     0.221 A 
ATOM      4  N   UNL     1       7.318   4.335  -0.534  1.00  0.00    -0.260 N 
ATOM      5  N   UNL     1       6.234   4.544   0.210  1.00  0.00    -0.220 N 
ATOM      6  C   UNL     1       5.026   4.972  -0.194  1.00  0.00     0.160 A 
ATOM      7  C   UNL     1       4.256   5.024   0.946  1.00  0.00     0.153 A 
ATOM      8  N   UNL     1       5.003   4.636   1.979  1.00  0.00    -0.231 NA
ATOM      9  C   UNL     1       6.232   4.335   1.539  1.00  0.00     0.196 A 
ATOM     10  H   UNL     1       9.362   3.343   1.851  1.00  0.00     0.171 HD
ATOM     11  H   UNL     1       7.328   4.494  -1.562  1.00  0.00     0.192 HD
ENDROOT
BRANCH   1  12
ATOM     12  N   UNL     1       7.466   3.664   3.432  1.00  0.00    -0.262 NA
BRANCH  12  13
ATOM     13  C   UNL     1       7.050   2.470   4.080  1.00  0.00     0.110 C 
ATOM     14  N   UNL     1       6.857  -0.178   4.984  1.00  0.00    -0.301 NA
ATOM     15  C   UNL     1       8.178   0.406   4.997  1.00  0.00     0.087 C 
ATOM     16  C   UNL     1       6.047   0.266   3.894  1.00  0.00     0.087 C 
ATOM     17  C   UNL     1       8.165   1.903   4.942  1.00  0.00     0.043 C 
ATOM     18  C   UNL     1       6.737   1.353   3.070  1.00  0.00     0.043 C 
BRANCH  14  19
ATOM     19  C   UNL     1       7.009  -1.617   5.036  1.00  0.00     0.050 C 
ATOM     20  C   UNL     1       8.396  -2.103   4.791  1.00  0.00     0.024 C 
ATOM     21  C   UNL     1       6.064  -2.205   3.996  1.00  0.00     0.024 C 
ENDBRANCH  14  19
ENDBRANCH  12  13
ENDBRANCH   1  12
BRANCH   3  22
ATOM     22  N   UNL     1       9.471   3.698  -0.614  1.00  0.00    -0.213 NA
BRANCH  22  23
ATOM     23  C   UNL     1       9.494   2.978  -1.837  1.00  0.00     0.086 A 
ATOM     24  C   UNL     1       9.702   3.695  -2.998  1.00  0.00     0.030 A 
ATOM     25  C   UNL     1       9.315   1.603  -1.892  1.00  0.00     0.092 A 
ATOM     26  C   UNL     1       9.740   3.085  -4.231  1.00  0.00     0.002 A 
ATOM     27  C   UNL     1       9.353   0.992  -3.126  1.00  0.00     0.022 A 
ATOM     28  C   UNL     1       9.563   1.706  -4.306  1.00  0.00     0.001 A 
BRANCH  25  29
ATOM     29  S   UNL     1       9.052   0.707  -0.420  1.00  0.00     0.177 S 
ATOM     30  C   UNL     1       7.300   0.521  -0.195  1.00  0.00     0.164 C 
ATOM     31  O   UNL     1       9.587   1.423   0.785  1.00  0.00    -0.224 OA
ATOM     32  O   UNL     1       9.668  -0.657  -0.535  1.00  0.00    -0.224 OA
ENDBRANCH  25  29
ENDBRANCH  22  23
ENDBRANCH   3  22
BRANCH   6  33
ATOM     33  C   UNL     1       4.627   5.304  -1.537  1.00  0.00     0.121 C 
ATOM     34  N   UNL     1       4.291   5.577  -2.604  1.00  0.00    -0.191 NA
ENDBRANCH   6  33
TORSDOF 7
ENDMDL
