MODEL 1
REMARK VINA RESULT:      -4.3      0.000      0.000
REMARK SMILES c1cc2nnc(C3CCOCC3)n2[nH]c1=NCCN1CCOCC1
REMARK SMILES IDX 16 1 15 2 1 3 2 4 3 5 14 6 4 7 13 8 5 9 6 10 7 12 8 13 12 14
REMARK SMILES IDX 9 15 11 16 10 17 17 18 18 19 19 20 20 21 24 22 21 23 23 24
REMARK SMILES IDX 22 25
REMARK H PARENT 14 11
ROOT
ATOM      1  N   UNL     1       4.731  -0.437   0.729  1.00  0.00    -0.266 NA
ENDROOT
BRANCH   1   2
ATOM      2  C   UNL     1       4.709   0.689   0.103  1.00  0.00     0.140 A 
ATOM      3  C   UNL     1       4.083   0.849  -1.112  1.00  0.00     0.052 A 
ATOM      4  C   UNL     1       4.053   2.078  -1.738  1.00  0.00     0.055 A 
ATOM      5  C   UNL     1       4.654   3.168  -1.142  1.00  0.00     0.175 A 
ATOM      6  N   UNL     1       5.284   1.787   0.642  1.00  0.00    -0.275 N 
ATOM      7  N   UNL     1       4.744   4.443  -1.540  1.00  0.00    -0.129 NA
ATOM      8  N   UNL     1       5.256   2.976   0.045  1.00  0.00    -0.218 N 
ATOM      9  N   UNL     1       5.417   5.081  -0.594  1.00  0.00    -0.133 NA
ATOM     10  C   UNL     1       5.740   4.191   0.391  1.00  0.00     0.156 A 
ATOM     11  H   UNL     1       5.768   1.692   1.565  1.00  0.00     0.190 HD
BRANCH  10  12
ATOM     12  C   UNL     1       6.486   4.491   1.643  1.00  0.00     0.064 C 
ATOM     13  C   UNL     1       7.649   5.444   1.376  1.00  0.00     0.040 C 
ATOM     14  C   UNL     1       7.050   3.245   2.273  1.00  0.00     0.040 C 
ATOM     15  C   UNL     1       8.763   4.798   0.604  1.00  0.00     0.161 C 
ATOM     16  C   UNL     1       8.412   2.897   1.768  1.00  0.00     0.161 C 
ATOM     17  O   UNL     1       8.635   3.436   0.498  1.00  0.00    -0.381 OA
ENDBRANCH  10  12
ENDBRANCH   1   2
BRANCH   1  18
ATOM     18  C   UNL     1       5.349  -0.494   2.036  1.00  0.00     0.160 C 
BRANCH  18  19
ATOM     19  C   UNL     1       6.698  -1.177   2.020  1.00  0.00     0.108 C 
BRANCH  19  20
ATOM     20  N   UNL     1       7.653  -0.552   2.882  1.00  0.00    -0.297 NA
ATOM     21  C   UNL     1       8.897  -1.244   3.006  1.00  0.00     0.113 C 
ATOM     22  C   UNL     1       7.091  -0.153   4.154  1.00  0.00     0.113 C 
ATOM     23  C   UNL     1       9.499  -1.316   4.341  1.00  0.00     0.175 C 
ATOM     24  C   UNL     1       8.217   0.552   4.873  1.00  0.00     0.175 C 
ATOM     25  O   UNL     1       9.240  -0.296   5.215  1.00  0.00    -0.379 OA
ENDBRANCH  19  20
ENDBRANCH  18  19
ENDBRANCH   1  18
TORSDOF 5
ENDMDL
MODEL 2
REMARK VINA RESULT:      -4.1      1.901      2.152
REMARK SMILES c1cc2nnc(C3CCOCC3)n2[nH]c1=NCCN1CCOCC1
REMARK SMILES IDX 16 1 15 2 1 3 2 4 3 5 14 6 4 7 13 8 5 9 6 10 7 12 8 13 12 14
REMARK SMILES IDX 9 15 11 16 10 17 17 18 18 19 19 20 20 21 24 22 21 23 23 24
REMARK SMILES IDX 22 25
REMARK H PARENT 14 11
ROOT
ATOM      1  N   UNL     1       5.190  -0.986   0.445  1.00  0.00    -0.266 NA
ENDROOT
BRANCH   1   2
ATOM      2  C   UNL     1       5.169   0.213  -0.027  1.00  0.00     0.140 A 
ATOM      3  C   UNL     1       4.009   0.822  -0.448  1.00  0.00     0.052 A 
ATOM      4  C   UNL     1       4.019   2.120  -0.917  1.00  0.00     0.055 A 
ATOM      5  C   UNL     1       5.205   2.823  -0.965  1.00  0.00     0.175 A 
ATOM      6  N   UNL     1       6.302   0.945  -0.097  1.00  0.00    -0.275 N 
ATOM      7  N   UNL     1       5.463   4.076  -1.361  1.00  0.00    -0.129 NA
ATOM      8  N   UNL     1       6.319   2.198  -0.546  1.00  0.00    -0.218 N 
ATOM      9  N   UNL     1       6.764   4.259  -1.195  1.00  0.00    -0.133 NA
ATOM     10  C   UNL     1       7.307   3.110  -0.693  1.00  0.00     0.156 A 
ATOM     11  H   UNL     1       7.198   0.505   0.216  1.00  0.00     0.190 HD
BRANCH  10  12
ATOM     12  C   UNL     1       8.737   2.886  -0.349  1.00  0.00     0.064 C 
ATOM     13  C   UNL     1       9.634   3.925  -1.018  1.00  0.00     0.040 C 
ATOM     14  C   UNL     1       9.213   1.524  -0.782  1.00  0.00     0.040 C 
ATOM     15  C   UNL     1       9.732   3.737  -2.504  1.00  0.00     0.161 C 
ATOM     16  C   UNL     1       9.740   1.504  -2.179  1.00  0.00     0.161 C 
ATOM     17  O   UNL     1       9.205   2.547  -2.939  1.00  0.00    -0.381 OA
ENDBRANCH  10  12
ENDBRANCH   1   2
BRANCH   1  18
ATOM     18  C   UNL     1       6.298  -1.382   1.287  1.00  0.00     0.160 C 
BRANCH  18  19
ATOM     19  C   UNL     1       6.205  -0.817   2.687  1.00  0.00     0.108 C 
BRANCH  19  20
ATOM     20  N   UNL     1       7.263   0.094   2.995  1.00  0.00    -0.297 NA
ATOM     21  C   UNL     1       8.563  -0.329   2.580  1.00  0.00     0.113 C 
ATOM     22  C   UNL     1       7.224   0.563   4.365  1.00  0.00     0.113 C 
ATOM     23  C   UNL     1       9.677  -0.092   3.504  1.00  0.00     0.175 C 
ATOM     24  C   UNL     1       8.352   1.562   4.466  1.00  0.00     0.175 C 
ATOM     25  O   UNL     1       9.589   0.979   4.350  1.00  0.00    -0.379 OA
ENDBRANCH  19  20
ENDBRANCH  18  19
ENDBRANCH   1  18
TORSDOF 5
ENDMDL
MODEL 3
REMARK VINA RESULT:      -4.1      1.319      1.535
REMARK SMILES c1cc2nnc(C3CCOCC3)n2[nH]c1=NCCN1CCOCC1
REMARK SMILES IDX 16 1 15 2 1 3 2 4 3 5 14 6 4 7 13 8 5 9 6 10 7 12 8 13 12 14
REMARK SMILES IDX 9 15 11 16 10 17 17 18 18 19 19 20 20 21 24 22 21 23 23 24
REMARK SMILES IDX 22 25
REMARK H PARENT 14 11
ROOT
ATOM      1  N   UNL     1       3.954   0.750   0.302  1.00  0.00    -0.266 NA
ENDROOT
BRANCH   1   2
ATOM      2  C   UNL     1       4.487   1.879  -0.012  1.00  0.00     0.140 A 
ATOM      3  C   UNL     1       4.448   2.387  -1.291  1.00  0.00     0.052 A 
ATOM      4  C   UNL     1       5.002   3.616  -1.584  1.00  0.00     0.055 A 
ATOM      5  C   UNL     1       5.604   4.354  -0.585  1.00  0.00     0.175 A 
ATOM      6  N   UNL     1       5.090   2.641   0.927  1.00  0.00    -0.275 N 
ATOM      7  N   UNL     1       6.189   5.557  -0.619  1.00  0.00    -0.129 NA
ATOM      8  N   UNL     1       5.624   3.829   0.653  1.00  0.00    -0.218 N 
ATOM      9  N   UNL     1       6.594   5.809   0.617  1.00  0.00    -0.133 NA
ATOM     10  C   UNL     1       6.254   4.753   1.413  1.00  0.00     0.156 A 
ATOM     11  H   UNL     1       5.135   2.278   1.908  1.00  0.00     0.190 HD
BRANCH  10  12
ATOM     12  C   UNL     1       6.512   4.629   2.873  1.00  0.00     0.064 C 
ATOM     13  C   UNL     1       7.302   5.827   3.397  1.00  0.00     0.040 C 
ATOM     14  C   UNL     1       7.295   3.385   3.202  1.00  0.00     0.040 C 
ATOM     15  C   UNL     1       8.725   5.836   2.920  1.00  0.00     0.161 C 
ATOM     16  C   UNL     1       8.773   3.591   3.149  1.00  0.00     0.161 C 
ATOM     17  O   UNL     1       9.107   4.664   2.318  1.00  0.00    -0.381 OA
ENDBRANCH  10  12
ENDBRANCH   1   2
BRANCH   1  18
ATOM     18  C   UNL     1       4.563  -0.038   1.353  1.00  0.00     0.160 C 
BRANCH  18  19
ATOM     19  C   UNL     1       6.021  -0.343   1.091  1.00  0.00     0.108 C 
BRANCH  19  20
ATOM     20  N   UNL     1       6.862  -0.066   2.214  1.00  0.00    -0.297 NA
ATOM     21  C   UNL     1       8.231  -0.438   2.047  1.00  0.00     0.113 C 
ATOM     22  C   UNL     1       6.296  -0.516   3.468  1.00  0.00     0.113 C 
ATOM     23  C   UNL     1       8.906  -1.061   3.191  1.00  0.00     0.175 C 
ATOM     24  C   UNL     1       7.278  -0.064   4.523  1.00  0.00     0.175 C 
ATOM     25  O   UNL     1       8.479  -0.724   4.446  1.00  0.00    -0.379 OA
ENDBRANCH  19  20
ENDBRANCH  18  19
ENDBRANCH   1  18
TORSDOF 5
ENDMDL
MODEL 4
REMARK VINA RESULT:      -3.7      2.029      2.404
REMARK SMILES c1cc2nnc(C3CCOCC3)n2[nH]c1=NCCN1CCOCC1
REMARK SMILES IDX 16 1 15 2 1 3 2 4 3 5 14 6 4 7 13 8 5 9 6 10 7 12 8 13 12 14
REMARK SMILES IDX 9 15 11 16 10 17 17 18 18 19 19 20 20 21 24 22 21 23 23 24
REMARK SMILES IDX 22 25
REMARK H PARENT 14 11
ROOT
ATOM      1  N   UNL     1       4.643   0.094  -0.789  1.00  0.00    -0.266 NA
ENDROOT
BRANCH   1   2
ATOM      2  C   UNL     1       4.798   1.367  -0.914  1.00  0.00     0.140 A 
ATOM      3  C   UNL     1       3.738   2.230  -1.072  1.00  0.00     0.052 A 
ATOM      4  C   UNL     1       3.940   3.592  -1.171  1.00  0.00     0.055 A 
ATOM      5  C   UNL     1       5.221   4.102  -1.109  1.00  0.00     0.175 A 
ATOM      6  N   UNL     1       6.030   1.919  -0.862  1.00  0.00    -0.275 N 
ATOM      7  N   UNL     1       5.662   5.365  -1.167  1.00  0.00    -0.129 NA
ATOM      8  N   UNL     1       6.233   3.231  -0.954  1.00  0.00    -0.218 N 
ATOM      9  N   UNL     1       6.980   5.304  -1.049  1.00  0.00    -0.133 NA
ATOM     10  C   UNL     1       7.348   3.995  -0.917  1.00  0.00     0.156 A 
ATOM     11  H   UNL     1       6.854   1.285  -0.744  1.00  0.00     0.190 HD
BRANCH  10  12
ATOM     12  C   UNL     1       8.734   3.480  -0.747  1.00  0.00     0.064 C 
ATOM     13  C   UNL     1       9.705   4.193  -1.686  1.00  0.00     0.040 C 
ATOM     14  C   UNL     1       8.823   2.004  -1.031  1.00  0.00     0.040 C 
ATOM     15  C   UNL     1       9.503   3.817  -3.125  1.00  0.00     0.161 C 
ATOM     16  C   UNL     1       9.086   1.698  -2.469  1.00  0.00     0.161 C 
ATOM     17  O   UNL     1       8.666   2.744  -3.296  1.00  0.00    -0.381 OA
ENDBRANCH  10  12
ENDBRANCH   1   2
BRANCH   1  18
ATOM     18  C   UNL     1       5.569  -0.640   0.046  1.00  0.00     0.160 C 
BRANCH  18  19
ATOM     19  C   UNL     1       5.489  -0.245   1.504  1.00  0.00     0.108 C 
BRANCH  19  20
ATOM     20  N   UNL     1       6.752   0.146   2.049  1.00  0.00    -0.297 NA
ATOM     21  C   UNL     1       7.890  -0.427   1.404  1.00  0.00     0.113 C 
ATOM     22  C   UNL     1       6.800   0.044   3.492  1.00  0.00     0.113 C 
ATOM     23  C   UNL     1       8.993  -0.881   2.258  1.00  0.00     0.175 C 
ATOM     24  C   UNL     1       8.163   0.574   3.874  1.00  0.00     0.175 C 
ATOM     25  O   UNL     1       9.184  -0.239   3.450  1.00  0.00    -0.379 OA
ENDBRANCH  19  20
ENDBRANCH  18  19
ENDBRANCH   1  18
TORSDOF 5
ENDMDL
MODEL 5
REMARK VINA RESULT:      -3.7      2.536      6.057
REMARK SMILES c1cc2nnc(C3CCOCC3)n2[nH]c1=NCCN1CCOCC1
REMARK SMILES IDX 16 1 15 2 1 3 2 4 3 5 14 6 4 7 13 8 5 9 6 10 7 12 8 13 12 14
REMARK SMILES IDX 9 15 11 16 10 17 17 18 18 19 19 20 20 21 24 22 21 23 23 24
REMARK SMILES IDX 22 25
REMARK H PARENT 14 11
ROOT
ATOM      1  N   UNL     1       7.509   3.894   4.041  1.00  0.00    -0.266 NA
ENDROOT
BRANCH   1   2
ATOM      2  C   UNL     1       7.635   2.658   3.701  1.00  0.00     0.140 A 
ATOM      3  C   UNL     1       8.710   1.889   4.085  1.00  0.00     0.052 A 
ATOM      4  C   UNL     1       8.795   0.559   3.729  1.00  0.00     0.055 A 
ATOM      5  C   UNL     1       7.790  -0.016   2.978  1.00  0.00     0.175 A 
ATOM      6  N   UNL     1       6.681   2.046   2.965  1.00  0.00    -0.275 N 
ATOM      7  N   UNL     1       7.643  -1.269   2.527  1.00  0.00    -0.129 NA
ATOM      8  N   UNL     1       6.755   0.762   2.619  1.00  0.00    -0.218 N 
ATOM      9  N   UNL     1       6.495  -1.295   1.867  1.00  0.00    -0.133 NA
ATOM     10  C   UNL     1       5.935  -0.050   1.914  1.00  0.00     0.156 A 
ATOM     11  H   UNL     1       5.853   2.608   2.657  1.00  0.00     0.190 HD
BRANCH  10  12
ATOM     12  C   UNL     1       4.638   0.358   1.309  1.00  0.00     0.064 C 
ATOM     13  C   UNL     1       4.363  -0.417   0.022  1.00  0.00     0.040 C 
ATOM     14  C   UNL     1       4.612   1.826   0.974  1.00  0.00     0.040 C 
ATOM     15  C   UNL     1       5.269  -0.013  -1.104  1.00  0.00     0.161 C 
ATOM     16  C   UNL     1       5.130   2.125  -0.395  1.00  0.00     0.161 C 
ATOM     17  O   UNL     1       5.994   1.122  -0.841  1.00  0.00    -0.381 OA
ENDBRANCH  10  12
ENDBRANCH   1   2
BRANCH   1  18
ATOM     18  C   UNL     1       8.230   4.898   3.290  1.00  0.00     0.160 C 
BRANCH  18  19
ATOM     19  C   UNL     1       9.067   4.312   2.174  1.00  0.00     0.108 C 
BRANCH  19  20
ATOM     20  N   UNL     1       8.462   4.454   0.886  1.00  0.00    -0.297 NA
ATOM     21  C   UNL     1       8.646   3.342   0.008  1.00  0.00     0.113 C 
ATOM     22  C   UNL     1       8.752   5.729   0.263  1.00  0.00     0.113 C 
ATOM     23  C   UNL     1       8.935   3.634  -1.400  1.00  0.00     0.175 C 
ATOM     24  C   UNL     1       7.968   5.718  -1.027  1.00  0.00     0.175 C 
ATOM     25  O   UNL     1       8.440   4.796  -1.927  1.00  0.00    -0.379 OA
ENDBRANCH  19  20
ENDBRANCH  18  19
ENDBRANCH   1  18
TORSDOF 5
ENDMDL
MODEL 6
REMARK VINA RESULT:      -3.7      2.373      5.209
REMARK SMILES c1cc2nnc(C3CCOCC3)n2[nH]c1=NCCN1CCOCC1
REMARK SMILES IDX 16 1 15 2 1 3 2 4 3 5 14 6 4 7 13 8 5 9 6 10 7 12 8 13 12 14
REMARK SMILES IDX 9 15 11 16 10 17 17 18 18 19 19 20 20 21 24 22 21 23 23 24
REMARK SMILES IDX 22 25
REMARK H PARENT 14 11
ROOT
ATOM      1  N   UNL     1       4.813   0.102   1.346  1.00  0.00    -0.266 NA
ENDROOT
BRANCH   1   2
ATOM      2  C   UNL     1       5.722   0.364   2.220  1.00  0.00     0.140 A 
ATOM      3  C   UNL     1       6.296  -0.609   3.007  1.00  0.00     0.052 A 
ATOM      4  C   UNL     1       7.290  -0.296   3.910  1.00  0.00     0.055 A 
ATOM      5  C   UNL     1       7.723   1.009   4.030  1.00  0.00     0.175 A 
ATOM      6  N   UNL     1       6.181   1.625   2.379  1.00  0.00    -0.275 N 
ATOM      7  N   UNL     1       8.667   1.548   4.812  1.00  0.00    -0.129 NA
ATOM      8  N   UNL     1       7.142   1.934   3.247  1.00  0.00    -0.218 N 
ATOM      9  N   UNL     1       8.691   2.842   4.528  1.00  0.00    -0.133 NA
ATOM     10  C   UNL     1       7.757   3.096   3.564  1.00  0.00     0.156 A 
ATOM     11  H   UNL     1       5.761   2.384   1.794  1.00  0.00     0.190 HD
BRANCH  10  12
ATOM     12  C   UNL     1       7.460   4.417   2.948  1.00  0.00     0.064 C 
ATOM     13  C   UNL     1       8.068   5.555   3.766  1.00  0.00     0.040 C 
ATOM     14  C   UNL     1       5.980   4.669   2.843  1.00  0.00     0.040 C 
ATOM     15  C   UNL     1       7.371   5.762   5.080  1.00  0.00     0.161 C 
ATOM     16  C   UNL     1       5.406   5.319   4.060  1.00  0.00     0.161 C 
ATOM     17  O   UNL     1       6.193   5.067   5.188  1.00  0.00    -0.381 OA
ENDBRANCH  10  12
ENDBRANCH   1   2
BRANCH   1  18
ATOM     18  C   UNL     1       5.221  -0.318   0.023  1.00  0.00     0.160 C 
BRANCH  18  19
ATOM     19  C   UNL     1       6.471   0.385  -0.459  1.00  0.00     0.108 C 
BRANCH  19  20
ATOM     20  N   UNL     1       6.200   1.634  -1.100  1.00  0.00    -0.297 NA
ATOM     21  C   UNL     1       7.167   2.658  -0.859  1.00  0.00     0.113 C 
ATOM     22  C   UNL     1       4.836   2.081  -0.914  1.00  0.00     0.113 C 
ATOM     23  C   UNL     1       6.668   4.016  -0.623  1.00  0.00     0.175 C 
ATOM     24  C   UNL     1       4.729   3.351  -1.725  1.00  0.00     0.175 C 
ATOM     25  O   UNL     1       5.485   4.374  -1.209  1.00  0.00    -0.379 OA
ENDBRANCH  19  20
ENDBRANCH  18  19
ENDBRANCH   1  18
TORSDOF 5
ENDMDL
MODEL 7
REMARK VINA RESULT:      -3.6      2.054      2.606
REMARK SMILES c1cc2nnc(C3CCOCC3)n2[nH]c1=NCCN1CCOCC1
REMARK SMILES IDX 16 1 15 2 1 3 2 4 3 5 14 6 4 7 13 8 5 9 6 10 7 12 8 13 12 14
REMARK SMILES IDX 9 15 11 16 10 17 17 18 18 19 19 20 20 21 24 22 21 23 23 24
REMARK SMILES IDX 22 25
REMARK H PARENT 14 11
ROOT
ATOM      1  N   UNL     1       5.825  -0.325  -0.527  1.00  0.00    -0.266 NA
ENDROOT
BRANCH   1   2
ATOM      2  C   UNL     1       6.691   0.596  -0.776  1.00  0.00     0.140 A 
ATOM      3  C   UNL     1       7.983   0.314  -1.156  1.00  0.00     0.052 A 
ATOM      4  C   UNL     1       8.874   1.327  -1.446  1.00  0.00     0.055 A 
ATOM      5  C   UNL     1       8.470   2.644  -1.358  1.00  0.00     0.175 A 
ATOM      6  N   UNL     1       6.348   1.901  -0.703  1.00  0.00    -0.275 N 
ATOM      7  N   UNL     1       9.136   3.780  -1.597  1.00  0.00    -0.129 NA
ATOM      8  N   UNL     1       7.201   2.883  -0.984  1.00  0.00    -0.218 N 
ATOM      9  N   UNL     1       8.281   4.767  -1.372  1.00  0.00    -0.133 NA
ATOM     10  C   UNL     1       7.084   4.231  -0.993  1.00  0.00     0.156 A 
ATOM     11  H   UNL     1       5.371   2.143  -0.415  1.00  0.00     0.190 HD
BRANCH  10  12
ATOM     12  C   UNL     1       5.846   4.984  -0.655  1.00  0.00     0.064 C 
ATOM     13  C   UNL     1       6.049   5.847   0.589  1.00  0.00     0.040 C 
ATOM     14  C   UNL     1       4.683   4.065  -0.389  1.00  0.00     0.040 C 
ATOM     15  C   UNL     1       6.164   5.035   1.846  1.00  0.00     0.161 C 
ATOM     16  C   UNL     1       4.587   3.637   1.038  1.00  0.00     0.161 C 
ATOM     17  O   UNL     1       5.828   3.716   1.676  1.00  0.00    -0.381 OA
ENDBRANCH  10  12
ENDBRANCH   1   2
BRANCH   1  18
ATOM     18  C   UNL     1       5.554  -0.670   0.851  1.00  0.00     0.160 C 
BRANCH  18  19
ATOM     19  C   UNL     1       6.703  -1.399   1.512  1.00  0.00     0.108 C 
BRANCH  19  20
ATOM     20  N   UNL     1       7.463  -0.568   2.393  1.00  0.00    -0.297 NA
ATOM     21  C   UNL     1       8.679  -1.147   2.869  1.00  0.00     0.113 C 
ATOM     22  C   UNL     1       6.661   0.023   3.444  1.00  0.00     0.113 C 
ATOM     23  C   UNL     1       9.022  -0.933   4.279  1.00  0.00     0.175 C 
ATOM     24  C   UNL     1       7.613   0.917   4.203  1.00  0.00     0.175 C 
ATOM     25  O   UNL     1       8.577   0.212   4.879  1.00  0.00    -0.379 OA
ENDBRANCH  19  20
ENDBRANCH  18  19
ENDBRANCH   1  18
TORSDOF 5
ENDMDL
MODEL 8
REMARK VINA RESULT:      -3.6      2.027      5.244
REMARK SMILES c1cc2nnc(C3CCOCC3)n2[nH]c1=NCCN1CCOCC1
REMARK SMILES IDX 16 1 15 2 1 3 2 4 3 5 14 6 4 7 13 8 5 9 6 10 7 12 8 13 12 14
REMARK SMILES IDX 9 15 11 16 10 17 17 18 18 19 19 20 20 21 24 22 21 23 23 24
REMARK SMILES IDX 22 25
REMARK H PARENT 14 11
ROOT
ATOM      1  N   UNL     1       4.479   0.049   1.437  1.00  0.00    -0.266 NA
ENDROOT
BRANCH   1   2
ATOM      2  C   UNL     1       5.715   0.047   1.802  1.00  0.00     0.140 A 
ATOM      3  C   UNL     1       6.435  -1.113   1.971  1.00  0.00     0.052 A 
ATOM      4  C   UNL     1       7.766  -1.075   2.332  1.00  0.00     0.055 A 
ATOM      5  C   UNL     1       8.392   0.140   2.524  1.00  0.00     0.175 A 
ATOM      6  N   UNL     1       6.374   1.209   2.004  1.00  0.00    -0.275 N 
ATOM      7  N   UNL     1       9.656   0.429   2.857  1.00  0.00    -0.129 NA
ATOM      8  N   UNL     1       7.659   1.253   2.349  1.00  0.00    -0.218 N 
ATOM      9  N   UNL     1       9.736   1.751   2.899  1.00  0.00    -0.133 NA
ATOM     10  C   UNL     1       8.513   2.274   2.588  1.00  0.00     0.156 A 
ATOM     11  H   UNL     1       5.849   2.106   1.883  1.00  0.00     0.190 HD
BRANCH  10  12
ATOM     12  C   UNL     1       8.165   3.718   2.510  1.00  0.00     0.064 C 
ATOM     13  C   UNL     1       9.365   4.595   2.865  1.00  0.00     0.040 C 
ATOM     14  C   UNL     1       7.043   4.078   3.447  1.00  0.00     0.040 C 
ATOM     15  C   UNL     1       9.719   4.531   4.322  1.00  0.00     0.161 C 
ATOM     16  C   UNL     1       7.516   4.459   4.811  1.00  0.00     0.161 C 
ATOM     17  O   UNL     1       8.768   3.903   5.087  1.00  0.00    -0.381 OA
ENDBRANCH  10  12
ENDBRANCH   1   2
BRANCH   1  18
ATOM     18  C   UNL     1       3.996   1.144   0.624  1.00  0.00     0.160 C 
BRANCH  18  19
ATOM     19  C   UNL     1       4.962   1.535  -0.472  1.00  0.00     0.108 C 
BRANCH  19  20
ATOM     20  N   UNL     1       5.548   2.824  -0.271  1.00  0.00    -0.297 NA
ATOM     21  C   UNL     1       4.652   3.823   0.218  1.00  0.00     0.113 C 
ATOM     22  C   UNL     1       6.339   3.267  -1.399  1.00  0.00     0.113 C 
ATOM     23  C   UNL     1       4.761   5.167  -0.358  1.00  0.00     0.175 C 
ATOM     24  C   UNL     1       6.932   4.587  -0.963  1.00  0.00     0.175 C 
ATOM     25  O   UNL     1       5.986   5.569  -0.816  1.00  0.00    -0.379 OA
ENDBRANCH  19  20
ENDBRANCH  18  19
ENDBRANCH   1  18
TORSDOF 5
ENDMDL
MODEL 9
REMARK VINA RESULT:      -3.6      2.459      4.313
REMARK SMILES c1cc2nnc(C3CCOCC3)n2[nH]c1=NCCN1CCOCC1
REMARK SMILES IDX 16 1 15 2 1 3 2 4 3 5 14 6 4 7 13 8 5 9 6 10 7 12 8 13 12 14
REMARK SMILES IDX 9 15 11 16 10 17 17 18 18 19 19 20 20 21 24 22 21 23 23 24
REMARK SMILES IDX 22 25
REMARK H PARENT 14 11
ROOT
ATOM      1  N   UNL     1       4.283   3.758  -0.745  1.00  0.00    -0.266 NA
ENDROOT
BRANCH   1   2
ATOM      2  C   UNL     1       4.572   4.161   0.443  1.00  0.00     0.140 A 
ATOM      3  C   UNL     1       3.824   5.105   1.108  1.00  0.00     0.052 A 
ATOM      4  C   UNL     1       4.146   5.489   2.394  1.00  0.00     0.055 A 
ATOM      5  C   UNL     1       5.231   4.921   3.029  1.00  0.00     0.175 A 
ATOM      6  N   UNL     1       5.625   3.638   1.110  1.00  0.00    -0.275 N 
ATOM      7  N   UNL     1       5.726   5.116   4.258  1.00  0.00    -0.129 NA
ATOM      8  N   UNL     1       5.940   4.001   2.351  1.00  0.00    -0.218 N 
ATOM      9  N   UNL     1       6.772   4.311   4.370  1.00  0.00    -0.133 NA
ATOM     10  C   UNL     1       6.917   3.616   3.203  1.00  0.00     0.156 A 
ATOM     11  H   UNL     1       6.212   2.919   0.627  1.00  0.00     0.190 HD
BRANCH  10  12
ATOM     12  C   UNL     1       7.960   2.597   2.906  1.00  0.00     0.064 C 
ATOM     13  C   UNL     1       9.362   3.165   3.118  1.00  0.00     0.040 C 
ATOM     14  C   UNL     1       7.876   2.104   1.486  1.00  0.00     0.040 C 
ATOM     15  C   UNL     1       9.740   4.179   2.078  1.00  0.00     0.161 C 
ATOM     16  C   UNL     1       8.675   2.928   0.530  1.00  0.00     0.161 C 
ATOM     17  O   UNL     1       8.871   4.223   1.017  1.00  0.00    -0.381 OA
ENDBRANCH  10  12
ENDBRANCH   1   2
BRANCH   1  18
ATOM     18  C   UNL     1       5.127   2.760  -1.366  1.00  0.00     0.160 C 
BRANCH  18  19
ATOM     19  C   UNL     1       4.364   1.524  -1.789  1.00  0.00     0.108 C 
BRANCH  19  20
ATOM     20  N   UNL     1       4.479   0.447  -0.855  1.00  0.00    -0.297 NA
ATOM     21  C   UNL     1       3.663   0.571   0.311  1.00  0.00     0.113 C 
ATOM     22  C   UNL     1       5.852   0.101  -0.558  1.00  0.00     0.113 C 
ATOM     23  C   UNL     1       4.258   0.188   1.595  1.00  0.00     0.175 C 
ATOM     24  C   UNL     1       5.762  -1.092   0.364  1.00  0.00     0.175 C 
ATOM     25  O   UNL     1       5.228  -0.777   1.588  1.00  0.00    -0.379 OA
ENDBRANCH  19  20
ENDBRANCH  18  19
ENDBRANCH   1  18
TORSDOF 5
ENDMDL
