MODEL 1
REMARK VINA RESULT:      -4.2      0.000      0.000
REMARK SMILES CCCn1c(SCC(=O)NCCc2ccccc2)n[nH]c1=O
REMARK SMILES IDX 6 1 5 2 4 3 21 4 19 5 20 6 22 7 3 9 2 10 1 11 7 12 8 13
REMARK SMILES IDX 10 14 9 15 11 17 12 18 13 19 14 20 18 21 15 22 17 23 16 24
REMARK H PARENT 20 8 10 16
ROOT
ATOM      1  S   UNL     1       4.814   0.231  -0.209  1.00  0.00    -0.076 SA
ENDROOT
BRANCH   1   2
ATOM      2  C   UNL     1       6.594   0.148  -0.282  1.00  0.00     0.192 A 
ATOM      3  N   UNL     1       7.357  -0.087   0.824  1.00  0.00    -0.270 N 
ATOM      4  C   UNL     1       8.639  -0.094   0.447  1.00  0.00     0.343 A 
ATOM      5  N   UNL     1       7.455   0.273  -1.277  1.00  0.00    -0.146 NA
ATOM      6  N   UNL     1       8.706   0.133  -0.883  1.00  0.00    -0.226 N 
ATOM      7  O   UNL     1       9.681  -0.277   1.163  1.00  0.00    -0.246 OA
ATOM      8  H   UNL     1       9.568   0.189  -1.489  1.00  0.00     0.195 HD
BRANCH   3   9
ATOM      9  C   UNL     1       6.853  -0.294   2.181  1.00  0.00     0.129 C 
BRANCH   9  10
ATOM     10  C   UNL     1       6.570   1.054   2.829  1.00  0.00     0.019 C 
ATOM     11  C   UNL     1       7.809   1.547   3.534  1.00  0.00     0.006 C 
ENDBRANCH   9  10
ENDBRANCH   3   9
ENDBRANCH   1   2
BRANCH   1  12
ATOM     12  C   UNL     1       4.243   1.446  -1.417  1.00  0.00     0.178 C 
BRANCH  12  13
ATOM     13  C   UNL     1       4.426   2.822  -0.922  1.00  0.00     0.230 C 
ATOM     14  N   UNL     1       4.611   3.094   0.455  1.00  0.00    -0.355 N 
ATOM     15  O   UNL     1       4.412   3.752  -1.758  1.00  0.00    -0.274 OA
ATOM     16  H   UNL     1       4.589   2.281   1.102  1.00  0.00     0.163 HD
BRANCH  14  17
ATOM     17  C   UNL     1       4.802   4.404   1.017  1.00  0.00     0.120 C 
BRANCH  17  18
ATOM     18  C   UNL     1       6.163   4.452   1.683  1.00  0.00     0.056 C 
BRANCH  18  19
ATOM     19  C   UNL     1       7.142   4.623   0.559  1.00  0.00    -0.046 A 
ATOM     20  C   UNL     1       7.095   5.671  -0.320  1.00  0.00     0.004 A 
ATOM     21  C   UNL     1       8.139   3.654   0.411  1.00  0.00     0.004 A 
ATOM     22  C   UNL     1       8.031   5.766  -1.342  1.00  0.00     0.000 A 
ATOM     23  C   UNL     1       9.061   3.760  -0.609  1.00  0.00     0.000 A 
ATOM     24  C   UNL     1       9.032   4.813  -1.506  1.00  0.00     0.000 A 
ENDBRANCH  18  19
ENDBRANCH  17  18
ENDBRANCH  14  17
ENDBRANCH  12  13
ENDBRANCH   1  12
TORSDOF 8
ENDMDL
MODEL 2
REMARK VINA RESULT:      -3.9      2.276      4.976
REMARK SMILES CCCn1c(SCC(=O)NCCc2ccccc2)n[nH]c1=O
REMARK SMILES IDX 6 1 5 2 4 3 21 4 19 5 20 6 22 7 3 9 2 10 1 11 7 12 8 13
REMARK SMILES IDX 10 14 9 15 11 17 12 18 13 19 14 20 18 21 15 22 17 23 16 24
REMARK H PARENT 20 8 10 16
ROOT
ATOM      1  S   UNL     1       4.267   0.556   0.778  1.00  0.00    -0.076 SA
ENDROOT
BRANCH   1   2
ATOM      2  C   UNL     1       4.799   1.851  -0.326  1.00  0.00     0.192 A 
ATOM      3  N   UNL     1       5.792   2.726   0.006  1.00  0.00    -0.270 N 
ATOM      4  C   UNL     1       5.961   3.566  -1.020  1.00  0.00     0.343 A 
ATOM      5  N   UNL     1       4.414   2.207  -1.540  1.00  0.00    -0.146 NA
ATOM      6  N   UNL     1       5.090   3.241  -2.001  1.00  0.00    -0.226 N 
ATOM      7  O   UNL     1       6.783   4.537  -1.130  1.00  0.00    -0.246 OA
ATOM      8  H   UNL     1       4.968   3.705  -2.940  1.00  0.00     0.195 HD
BRANCH   3   9
ATOM      9  C   UNL     1       6.535   2.737   1.264  1.00  0.00     0.129 C 
BRANCH   9  10
ATOM     10  C   UNL     1       5.920   3.759   2.209  1.00  0.00     0.019 C 
ATOM     11  C   UNL     1       4.681   4.348   1.583  1.00  0.00     0.006 C 
ENDBRANCH   9  10
ENDBRANCH   3   9
ENDBRANCH   1   2
BRANCH   1  12
ATOM     12  C   UNL     1       5.439  -0.814   0.668  1.00  0.00     0.178 C 
BRANCH  12  13
ATOM     13  C   UNL     1       6.348  -0.836   1.828  1.00  0.00     0.230 C 
ATOM     14  N   UNL     1       7.734  -1.081   1.676  1.00  0.00    -0.355 N 
ATOM     15  O   UNL     1       5.857  -0.632   2.960  1.00  0.00    -0.274 OA
ATOM     16  H   UNL     1       8.076  -1.266   0.713  1.00  0.00     0.163 HD
BRANCH  14  17
ATOM     17  C   UNL     1       8.686  -1.113   2.754  1.00  0.00     0.120 C 
BRANCH  17  18
ATOM     18  C   UNL     1       9.731  -0.042   2.509  1.00  0.00     0.056 C 
BRANCH  18  19
ATOM     19  C   UNL     1       9.303   1.121   3.355  1.00  0.00    -0.046 A 
ATOM     20  C   UNL     1       8.540   0.985   4.483  1.00  0.00     0.004 A 
ATOM     21  C   UNL     1       9.706   2.399   2.956  1.00  0.00     0.004 A 
ATOM     22  C   UNL     1       8.175   2.106   5.217  1.00  0.00     0.000 A 
ATOM     23  C   UNL     1       9.335   3.504   3.694  1.00  0.00     0.000 A 
ATOM     24  C   UNL     1       8.566   3.386   4.837  1.00  0.00     0.000 A 
ENDBRANCH  18  19
ENDBRANCH  17  18
ENDBRANCH  14  17
ENDBRANCH  12  13
ENDBRANCH   1  12
TORSDOF 8
ENDMDL
MODEL 3
REMARK VINA RESULT:      -3.9      2.261      3.745
REMARK SMILES CCCn1c(SCC(=O)NCCc2ccccc2)n[nH]c1=O
REMARK SMILES IDX 6 1 5 2 4 3 21 4 19 5 20 6 22 7 3 9 2 10 1 11 7 12 8 13
REMARK SMILES IDX 10 14 9 15 11 17 12 18 13 19 14 20 18 21 15 22 17 23 16 24
REMARK H PARENT 20 8 10 16
ROOT
ATOM      1  S   UNL     1       7.529   0.818  -0.797  1.00  0.00    -0.076 SA
ENDROOT
BRANCH   1   2
ATOM      2  C   UNL     1       7.631   0.960   0.977  1.00  0.00     0.192 A 
ATOM      3  N   UNL     1       6.737   0.351   1.808  1.00  0.00    -0.270 N 
ATOM      4  C   UNL     1       7.081   0.640   3.067  1.00  0.00     0.343 A 
ATOM      5  N   UNL     1       8.474   1.591   1.777  1.00  0.00    -0.146 NA
ATOM      6  N   UNL     1       8.180   1.426   3.052  1.00  0.00    -0.226 N 
ATOM      7  O   UNL     1       6.516   0.276   4.153  1.00  0.00    -0.246 OA
ATOM      8  H   UNL     1       8.702   1.827   3.876  1.00  0.00     0.195 HD
BRANCH   3   9
ATOM      9  C   UNL     1       5.605  -0.473   1.388  1.00  0.00     0.129 C 
BRANCH   9  10
ATOM     10  C   UNL     1       4.719   0.326   0.443  1.00  0.00     0.019 C 
ATOM     11  C   UNL     1       3.296   0.302   0.942  1.00  0.00     0.006 C 
ENDBRANCH   9  10
ENDBRANCH   3   9
ENDBRANCH   1   2
BRANCH   1  12
ATOM     12  C   UNL     1       9.082   1.395  -1.513  1.00  0.00     0.178 C 
BRANCH  12  13
ATOM     13  C   UNL     1       9.051   2.848  -1.763  1.00  0.00     0.230 C 
ATOM     14  N   UNL     1       9.037   3.781  -0.698  1.00  0.00    -0.355 N 
ATOM     15  O   UNL     1       9.035   3.238  -2.951  1.00  0.00    -0.274 OA
ATOM     16  H   UNL     1       9.028   3.393   0.266  1.00  0.00     0.163 HD
BRANCH  14  17
ATOM     17  C   UNL     1       9.013   5.210  -0.857  1.00  0.00     0.120 C 
BRANCH  17  18
ATOM     18  C   UNL     1       8.341   5.821   0.357  1.00  0.00     0.056 C 
BRANCH  18  19
ATOM     19  C   UNL     1       7.003   5.149   0.442  1.00  0.00    -0.046 A 
ATOM     20  C   UNL     1       6.606   4.406   1.520  1.00  0.00     0.004 A 
ATOM     21  C   UNL     1       6.132   5.292  -0.643  1.00  0.00     0.004 A 
ATOM     22  C   UNL     1       5.353   3.805   1.531  1.00  0.00     0.000 A 
ATOM     23  C   UNL     1       4.892   4.689  -0.620  1.00  0.00     0.000 A 
ATOM     24  C   UNL     1       4.472   3.936   0.461  1.00  0.00     0.000 A 
ENDBRANCH  18  19
ENDBRANCH  17  18
ENDBRANCH  14  17
ENDBRANCH  12  13
ENDBRANCH   1  12
TORSDOF 8
ENDMDL
MODEL 4
REMARK VINA RESULT:      -3.5      2.631      5.754
REMARK SMILES CCCn1c(SCC(=O)NCCc2ccccc2)n[nH]c1=O
REMARK SMILES IDX 6 1 5 2 4 3 21 4 19 5 20 6 22 7 3 9 2 10 1 11 7 12 8 13
REMARK SMILES IDX 10 14 9 15 11 17 12 18 13 19 14 20 18 21 15 22 17 23 16 24
REMARK H PARENT 20 8 10 16
ROOT
ATOM      1  S   UNL     1       7.516   4.141   3.190  1.00  0.00    -0.076 SA
ENDROOT
BRANCH   1   2
ATOM      2  C   UNL     1       8.285   4.214   1.583  1.00  0.00     0.192 A 
ATOM      3  N   UNL     1       7.792   4.992   0.576  1.00  0.00    -0.270 N 
ATOM      4  C   UNL     1       8.582   4.835  -0.491  1.00  0.00     0.343 A 
ATOM      5  N   UNL     1       9.351   3.622   1.073  1.00  0.00    -0.146 NA
ATOM      6  N   UNL     1       9.571   3.968  -0.180  1.00  0.00    -0.226 N 
ATOM      7  O   UNL     1       8.485   5.377  -1.643  1.00  0.00    -0.246 OA
ATOM      8  H   UNL     1      10.357   3.633  -0.799  1.00  0.00     0.195 HD
BRANCH   3   9
ATOM      9  C   UNL     1       6.608   5.844   0.657  1.00  0.00     0.129 C 
BRANCH   9  10
ATOM     10  C   UNL     1       5.433   5.033   1.184  1.00  0.00     0.019 C 
ATOM     11  C   UNL     1       4.381   4.907   0.110  1.00  0.00     0.006 C 
ENDBRANCH   9  10
ENDBRANCH   3   9
ENDBRANCH   1   2
BRANCH   1  12
ATOM     12  C   UNL     1       8.441   2.981   4.219  1.00  0.00     0.178 C 
BRANCH  12  13
ATOM     13  C   UNL     1       8.092   1.585   3.900  1.00  0.00     0.230 C 
ATOM     14  N   UNL     1       8.167   1.088   2.576  1.00  0.00    -0.355 N 
ATOM     15  O   UNL     1       7.723   0.844   4.838  1.00  0.00    -0.274 OA
ATOM     16  H   UNL     1       8.457   1.759   1.838  1.00  0.00     0.163 HD
BRANCH  14  17
ATOM     17  C   UNL     1       7.850  -0.259   2.184  1.00  0.00     0.120 C 
BRANCH  17  18
ATOM     18  C   UNL     1       6.413  -0.551   2.568  1.00  0.00     0.056 C 
BRANCH  18  19
ATOM     19  C   UNL     1       5.603  -0.180   1.361  1.00  0.00    -0.046 A 
ATOM     20  C   UNL     1       6.087  -0.258   0.084  1.00  0.00     0.004 A 
ATOM     21  C   UNL     1       4.296   0.272   1.568  1.00  0.00     0.004 A 
ATOM     22  C   UNL     1       5.283   0.107  -0.990  1.00  0.00     0.000 A 
ATOM     23  C   UNL     1       3.510   0.632   0.494  1.00  0.00     0.000 A 
ATOM     24  C   UNL     1       3.980   0.559  -0.805  1.00  0.00     0.000 A 
ENDBRANCH  18  19
ENDBRANCH  17  18
ENDBRANCH  14  17
ENDBRANCH  12  13
ENDBRANCH   1  12
TORSDOF 8
ENDMDL
MODEL 5
REMARK VINA RESULT:      -3.4      1.571      4.011
REMARK SMILES CCCn1c(SCC(=O)NCCc2ccccc2)n[nH]c1=O
REMARK SMILES IDX 6 1 5 2 4 3 21 4 19 5 20 6 22 7 3 9 2 10 1 11 7 12 8 13
REMARK SMILES IDX 10 14 9 15 11 17 12 18 13 19 14 20 18 21 15 22 17 23 16 24
REMARK H PARENT 20 8 10 16
ROOT
ATOM      1  S   UNL     1       4.900   0.452   1.417  1.00  0.00    -0.076 SA
ENDROOT
BRANCH   1   2
ATOM      2  C   UNL     1       5.279   1.609   0.114  1.00  0.00     0.192 A 
ATOM      3  N   UNL     1       5.015   2.943   0.227  1.00  0.00    -0.270 N 
ATOM      4  C   UNL     1       5.414   3.539  -0.901  1.00  0.00     0.343 A 
ATOM      5  N   UNL     1       5.826   1.464  -1.081  1.00  0.00    -0.146 NA
ATOM      6  N   UNL     1       5.928   2.606  -1.732  1.00  0.00    -0.226 N 
ATOM      7  O   UNL     1       5.352   4.776  -1.215  1.00  0.00    -0.246 OA
ATOM      8  H   UNL     1       6.329   2.748  -2.697  1.00  0.00     0.195 HD
BRANCH   3   9
ATOM      9  C   UNL     1       4.403   3.598   1.382  1.00  0.00     0.129 C 
BRANCH   9  10
ATOM     10  C   UNL     1       5.456   4.409   2.123  1.00  0.00     0.019 C 
ATOM     11  C   UNL     1       4.784   5.328   3.112  1.00  0.00     0.006 C 
ENDBRANCH   9  10
ENDBRANCH   3   9
ENDBRANCH   1   2
BRANCH   1  12
ATOM     12  C   UNL     1       6.233  -0.761   1.517  1.00  0.00     0.178 C 
BRANCH  12  13
ATOM     13  C   UNL     1       7.524  -0.116   1.815  1.00  0.00     0.230 C 
ATOM     14  N   UNL     1       7.669   1.292   1.798  1.00  0.00    -0.355 N 
ATOM     15  O   UNL     1       8.498  -0.854   2.087  1.00  0.00    -0.274 OA
ATOM     16  H   UNL     1       6.829   1.847   1.542  1.00  0.00     0.163 HD
BRANCH  14  17
ATOM     17  C   UNL     1       8.890   1.997   2.083  1.00  0.00     0.120 C 
BRANCH  17  18
ATOM     18  C   UNL     1       9.721   2.059   0.817  1.00  0.00     0.056 C 
BRANCH  18  19
ATOM     19  C   UNL     1       9.335   3.352   0.160  1.00  0.00    -0.046 A 
ATOM     20  C   UNL     1       9.264   3.509  -1.197  1.00  0.00     0.004 A 
ATOM     21  C   UNL     1       9.042   4.441   0.988  1.00  0.00     0.004 A 
ATOM     22  C   UNL     1       8.905   4.736  -1.740  1.00  0.00     0.000 A 
ATOM     23  C   UNL     1       8.688   5.654   0.436  1.00  0.00     0.000 A 
ATOM     24  C   UNL     1       8.610   5.832  -0.933  1.00  0.00     0.000 A 
ENDBRANCH  18  19
ENDBRANCH  17  18
ENDBRANCH  14  17
ENDBRANCH  12  13
ENDBRANCH   1  12
TORSDOF 8
ENDMDL
MODEL 6
REMARK VINA RESULT:      -3.4      1.543      2.121
REMARK SMILES CCCn1c(SCC(=O)NCCc2ccccc2)n[nH]c1=O
REMARK SMILES IDX 6 1 5 2 4 3 21 4 19 5 20 6 22 7 3 9 2 10 1 11 7 12 8 13
REMARK SMILES IDX 10 14 9 15 11 17 12 18 13 19 14 20 18 21 15 22 17 23 16 24
REMARK H PARENT 20 8 10 16
ROOT
ATOM      1  S   UNL     1       4.524   0.269   0.118  1.00  0.00    -0.076 SA
ENDROOT
BRANCH   1   2
ATOM      2  C   UNL     1       6.292   0.216  -0.108  1.00  0.00     0.192 A 
ATOM      3  N   UNL     1       7.135  -0.246   0.860  1.00  0.00    -0.270 N 
ATOM      4  C   UNL     1       8.385  -0.164   0.392  1.00  0.00     0.343 A 
ATOM      5  N   UNL     1       7.076   0.557  -1.116  1.00  0.00    -0.146 NA
ATOM      6  N   UNL     1       8.352   0.344  -0.859  1.00  0.00    -0.226 N 
ATOM      7  O   UNL     1       9.476  -0.490   0.969  1.00  0.00    -0.246 OA
ATOM      8  H   UNL     1       9.165   0.534  -1.504  1.00  0.00     0.195 HD
BRANCH   3   9
ATOM      9  C   UNL     1       6.735  -0.743   2.175  1.00  0.00     0.129 C 
BRANCH   9  10
ATOM     10  C   UNL     1       6.876   0.371   3.203  1.00  0.00     0.019 C 
ATOM     11  C   UNL     1       6.946  -0.223   4.587  1.00  0.00     0.006 C 
ENDBRANCH   9  10
ENDBRANCH   3   9
ENDBRANCH   1   2
BRANCH   1  12
ATOM     12  C   UNL     1       4.075   1.892   0.769  1.00  0.00     0.178 C 
BRANCH  12  13
ATOM     13  C   UNL     1       4.803   2.969   0.074  1.00  0.00     0.230 C 
ATOM     14  N   UNL     1       5.570   3.922   0.786  1.00  0.00    -0.355 N 
ATOM     15  O   UNL     1       4.722   3.019  -1.173  1.00  0.00    -0.274 OA
ATOM     16  H   UNL     1       5.578   3.840   1.822  1.00  0.00     0.163 HD
BRANCH  14  17
ATOM     17  C   UNL     1       6.313   4.996   0.184  1.00  0.00     0.120 C 
BRANCH  17  18
ATOM     18  C   UNL     1       7.708   4.499  -0.140  1.00  0.00     0.056 C 
BRANCH  18  19
ATOM     19  C   UNL     1       8.406   4.405   1.185  1.00  0.00    -0.046 A 
ATOM     20  C   UNL     1       8.605   5.482   2.003  1.00  0.00     0.004 A 
ATOM     21  C   UNL     1       8.876   3.149   1.585  1.00  0.00     0.004 A 
ATOM     22  C   UNL     1       9.264   5.325   3.216  1.00  0.00     0.000 A 
ATOM     23  C   UNL     1       9.530   3.008   2.791  1.00  0.00     0.000 A 
ATOM     24  C   UNL     1       9.739   4.085   3.633  1.00  0.00     0.000 A 
ENDBRANCH  18  19
ENDBRANCH  17  18
ENDBRANCH  14  17
ENDBRANCH  12  13
ENDBRANCH   1  12
TORSDOF 8
ENDMDL
MODEL 7
REMARK VINA RESULT:      -3.3      2.335      3.345
REMARK SMILES CCCn1c(SCC(=O)NCCc2ccccc2)n[nH]c1=O
REMARK SMILES IDX 6 1 5 2 4 3 21 4 19 5 20 6 22 7 3 9 2 10 1 11 7 12 8 13
REMARK SMILES IDX 10 14 9 15 11 17 12 18 13 19 14 20 18 21 15 22 17 23 16 24
REMARK H PARENT 20 8 10 16
ROOT
ATOM      1  S   UNL     1       4.211   1.207  -1.287  1.00  0.00    -0.076 SA
ENDROOT
BRANCH   1   2
ATOM      2  C   UNL     1       4.785   0.465   0.229  1.00  0.00     0.192 A 
ATOM      3  N   UNL     1       6.060   0.001   0.375  1.00  0.00    -0.270 N 
ATOM      4  C   UNL     1       6.182  -0.489   1.612  1.00  0.00     0.343 A 
ATOM      5  N   UNL     1       4.196   0.230   1.390  1.00  0.00    -0.146 NA
ATOM      6  N   UNL     1       5.004  -0.346   2.259  1.00  0.00    -0.226 N 
ATOM      7  O   UNL     1       7.204  -1.019   2.164  1.00  0.00    -0.246 OA
ATOM      8  H   UNL     1       4.768  -0.629   3.247  1.00  0.00     0.195 HD
BRANCH   3   9
ATOM      9  C   UNL     1       7.103   0.038  -0.648  1.00  0.00     0.129 C 
BRANCH   9  10
ATOM     10  C   UNL     1       8.335   0.738  -0.093  1.00  0.00     0.019 C 
ATOM     11  C   UNL     1       9.544   0.364  -0.913  1.00  0.00     0.006 C 
ENDBRANCH   9  10
ENDBRANCH   3   9
ENDBRANCH   1   2
BRANCH   1  12
ATOM     12  C   UNL     1       4.811   2.909  -1.359  1.00  0.00     0.178 C 
BRANCH  12  13
ATOM     13  C   UNL     1       5.408   3.321  -0.077  1.00  0.00     0.230 C 
ATOM     14  N   UNL     1       4.605   3.656   1.040  1.00  0.00    -0.355 N 
ATOM     15  O   UNL     1       6.656   3.369  -0.001  1.00  0.00    -0.274 OA
ATOM     16  H   UNL     1       3.575   3.619   0.906  1.00  0.00     0.163 HD
BRANCH  14  17
ATOM     17  C   UNL     1       5.109   4.061   2.324  1.00  0.00     0.120 C 
BRANCH  17  18
ATOM     18  C   UNL     1       5.764   5.421   2.181  1.00  0.00     0.056 C 
BRANCH  18  19
ATOM     19  C   UNL     1       7.060   5.310   2.929  1.00  0.00    -0.046 A 
ATOM     20  C   UNL     1       8.235   5.839   2.470  1.00  0.00     0.004 A 
ATOM     21  C   UNL     1       7.052   4.625   4.148  1.00  0.00     0.004 A 
ATOM     22  C   UNL     1       9.402   5.695   3.211  1.00  0.00     0.000 A 
ATOM     23  C   UNL     1       8.217   4.489   4.874  1.00  0.00     0.000 A 
ATOM     24  C   UNL     1       9.414   5.018   4.427  1.00  0.00     0.000 A 
ENDBRANCH  18  19
ENDBRANCH  17  18
ENDBRANCH  14  17
ENDBRANCH  12  13
ENDBRANCH   1  12
TORSDOF 8
ENDMDL
MODEL 8
REMARK VINA RESULT:      -3.2      2.512      4.289
REMARK SMILES CCCn1c(SCC(=O)NCCc2ccccc2)n[nH]c1=O
REMARK SMILES IDX 6 1 5 2 4 3 21 4 19 5 20 6 22 7 3 9 2 10 1 11 7 12 8 13
REMARK SMILES IDX 10 14 9 15 11 17 12 18 13 19 14 20 18 21 15 22 17 23 16 24
REMARK H PARENT 20 8 10 16
ROOT
ATOM      1  S   UNL     1       7.119   4.059   3.629  1.00  0.00    -0.076 SA
ENDROOT
BRANCH   1   2
ATOM      2  C   UNL     1       8.154   3.123   2.520  1.00  0.00     0.192 A 
ATOM      3  N   UNL     1       7.842   1.853   2.131  1.00  0.00    -0.270 N 
ATOM      4  C   UNL     1       8.801   1.427   1.304  1.00  0.00     0.343 A 
ATOM      5  N   UNL     1       9.292   3.403   1.907  1.00  0.00    -0.146 NA
ATOM      6  N   UNL     1       9.722   2.405   1.159  1.00  0.00    -0.226 N 
ATOM      7  O   UNL     1       8.903   0.300   0.711  1.00  0.00    -0.246 OA
ATOM      8  H   UNL     1      10.600   2.389   0.575  1.00  0.00     0.195 HD
BRANCH   3   9
ATOM      9  C   UNL     1       6.664   1.097   2.551  1.00  0.00     0.129 C 
BRANCH   9  10
ATOM     10  C   UNL     1       7.013   0.238   3.758  1.00  0.00     0.019 C 
ATOM     11  C   UNL     1       8.413   0.556   4.218  1.00  0.00     0.006 C 
ENDBRANCH   9  10
ENDBRANCH   3   9
ENDBRANCH   1   2
BRANCH   1  12
ATOM     12  C   UNL     1       6.182   5.264   2.664  1.00  0.00     0.178 C 
BRANCH  12  13
ATOM     13  C   UNL     1       6.349   5.039   1.217  1.00  0.00     0.230 C 
ATOM     14  N   UNL     1       5.491   4.171   0.500  1.00  0.00    -0.355 N 
ATOM     15  O   UNL     1       7.279   5.640   0.634  1.00  0.00    -0.274 OA
ATOM     16  H   UNL     1       4.753   3.684   1.045  1.00  0.00     0.163 HD
BRANCH  14  17
ATOM     17  C   UNL     1       5.583   3.903  -0.910  1.00  0.00     0.120 C 
BRANCH  17  18
ATOM     18  C   UNL     1       6.408   2.648  -1.112  1.00  0.00     0.056 C 
BRANCH  18  19
ATOM     19  C   UNL     1       5.508   1.520  -0.701  1.00  0.00    -0.046 A 
ATOM     20  C   UNL     1       5.896   0.208  -0.723  1.00  0.00     0.004 A 
ATOM     21  C   UNL     1       4.212   1.839  -0.284  1.00  0.00     0.004 A 
ATOM     22  C   UNL     1       5.010  -0.789  -0.334  1.00  0.00     0.000 A 
ATOM     23  C   UNL     1       3.342   0.840   0.099  1.00  0.00     0.000 A 
ATOM     24  C   UNL     1       3.716  -0.492   0.085  1.00  0.00     0.000 A 
ENDBRANCH  18  19
ENDBRANCH  17  18
ENDBRANCH  14  17
ENDBRANCH  12  13
ENDBRANCH   1  12
TORSDOF 8
ENDMDL
MODEL 9
REMARK VINA RESULT:      -3.0      2.279      5.046
REMARK SMILES CCCn1c(SCC(=O)NCCc2ccccc2)n[nH]c1=O
REMARK SMILES IDX 6 1 5 2 4 3 21 4 19 5 20 6 22 7 3 9 2 10 1 11 7 12 8 13
REMARK SMILES IDX 10 14 9 15 11 17 12 18 13 19 14 20 18 21 15 22 17 23 16 24
REMARK H PARENT 20 8 10 16
ROOT
ATOM      1  S   UNL     1       5.198   4.207  -1.051  1.00  0.00    -0.076 SA
ENDROOT
BRANCH   1   2
ATOM      2  C   UNL     1       5.772   4.167   0.637  1.00  0.00     0.192 A 
ATOM      3  N   UNL     1       7.011   4.612   0.995  1.00  0.00    -0.270 N 
ATOM      4  C   UNL     1       7.140   4.456   2.316  1.00  0.00     0.343 A 
ATOM      5  N   UNL     1       5.211   3.761   1.764  1.00  0.00    -0.146 NA
ATOM      6  N   UNL     1       6.002   3.918   2.807  1.00  0.00    -0.226 N 
ATOM      7  O   UNL     1       8.137   4.742   3.060  1.00  0.00    -0.246 OA
ATOM      8  H   UNL     1       5.781   3.671   3.809  1.00  0.00     0.195 HD
BRANCH   3   9
ATOM      9  C   UNL     1       8.015   5.162   0.087  1.00  0.00     0.129 C 
BRANCH   9  10
ATOM     10  C   UNL     1       9.213   4.225   0.027  1.00  0.00     0.019 C 
ATOM     11  C   UNL     1       8.792   2.900  -0.556  1.00  0.00     0.006 C 
ENDBRANCH   9  10
ENDBRANCH   3   9
ENDBRANCH   1   2
BRANCH   1  12
ATOM     12  C   UNL     1       4.523   2.585  -1.469  1.00  0.00     0.178 C 
BRANCH  12  13
ATOM     13  C   UNL     1       5.165   1.518  -0.682  1.00  0.00     0.230 C 
ATOM     14  N   UNL     1       4.759   1.230   0.644  1.00  0.00    -0.355 N 
ATOM     15  O   UNL     1       6.088   0.867  -1.221  1.00  0.00    -0.274 OA
ATOM     16  H   UNL     1       4.004   1.821   1.043  1.00  0.00     0.163 HD
BRANCH  14  17
ATOM     17  C   UNL     1       5.329   0.203   1.474  1.00  0.00     0.120 C 
BRANCH  17  18
ATOM     18  C   UNL     1       6.834   0.218   1.298  1.00  0.00     0.056 C 
BRANCH  18  19
ATOM     19  C   UNL     1       7.387   0.387   2.683  1.00  0.00    -0.046 A 
ATOM     20  C   UNL     1       6.778  -0.119   3.798  1.00  0.00     0.004 A 
ATOM     21  C   UNL     1       8.580   1.104   2.825  1.00  0.00     0.004 A 
ATOM     22  C   UNL     1       7.342   0.079   5.052  1.00  0.00     0.000 A 
ATOM     23  C   UNL     1       9.129   1.294   4.075  1.00  0.00     0.000 A 
ATOM     24  C   UNL     1       8.528   0.789   5.215  1.00  0.00     0.000 A 
ENDBRANCH  18  19
ENDBRANCH  17  18
ENDBRANCH  14  17
ENDBRANCH  12  13
ENDBRANCH   1  12
TORSDOF 8
ENDMDL
