MODEL 1
REMARK VINA RESULT:       3.5      0.000      0.000
REMARK SMILES COc1cc2c(cc1O)CN(c1cncc(=NCc3ccc(F)cc3)[nH]1)CC2
REMARK SMILES IDX 12 1 13 2 14 3 15 4 16 5 26 6 11 8 3 9 4 10 8 11 5 12 7 13
REMARK SMILES IDX 6 14 28 15 10 16 27 17 2 18 1 19 9 20 17 22 18 23 19 24
REMARK SMILES IDX 20 25 25 26 21 27 24 28 22 29 23 30
REMARK H PARENT 26 7 9 21
ROOT
ATOM      1  C   UNL     1       7.978   3.219  -0.990  1.00  0.00     0.126 A 
ATOM      2  C   UNL     1       8.331   3.673  -2.241  1.00  0.00     0.156 A 
ATOM      3  N   UNL     1       9.079   2.874  -3.057  1.00  0.00    -0.257 NA
ATOM      4  C   UNL     1       9.464   1.645  -2.629  1.00  0.00     0.157 A 
ATOM      5  C   UNL     1       9.123   1.169  -1.383  1.00  0.00     0.145 A 
ATOM      6  N   UNL     1       8.371   2.003  -0.592  1.00  0.00    -0.324 N 
ATOM      7  H   UNL     1       8.117   1.643   0.338  1.00  0.00     0.170 HD
ENDROOT
BRANCH   1   8
ATOM      8  N   UNL     1       7.176   4.089  -0.177  1.00  0.00    -0.352 N 
ATOM      9  C   UNL     1       3.621   5.422   3.117  1.00  0.00     0.160 A 
ATOM     10  C   UNL     1       4.982   5.220   3.173  1.00  0.00     0.054 A 
ATOM     11  C   UNL     1       2.978   5.180   1.907  1.00  0.00     0.157 A 
ATOM     12  C   UNL     1       5.717   4.791   2.080  1.00  0.00    -0.037 A 
ATOM     13  C   UNL     1       3.706   4.748   0.803  1.00  0.00     0.056 A 
ATOM     14  C   UNL     1       5.092   4.550   0.884  1.00  0.00    -0.021 A 
ATOM     15  C   UNL     1       7.197   4.583   2.177  1.00  0.00     0.057 C 
ATOM     16  C   UNL     1       5.754   4.080  -0.352  1.00  0.00     0.154 C 
ATOM     17  C   UNL     1       7.737   4.999   0.801  1.00  0.00     0.123 C 
BRANCH   9  18
ATOM     18  O   UNL     1       2.845   5.846   4.173  1.00  0.00    -0.493 OA
ATOM     19  C   UNL     1       2.509   4.957   5.218  1.00  0.00     0.278 C 
ENDBRANCH   9  18
BRANCH  11  20
ATOM     20  O   UNL     1       1.617   5.347   1.729  1.00  0.00    -0.504 OA
ATOM     21  H   UNL     1       1.156   5.071   0.872  1.00  0.00     0.293 HD
ENDBRANCH  11  20
ENDBRANCH   1   8
BRANCH   5  22
ATOM     22  N   UNL     1       9.429   0.063  -0.922  1.00  0.00    -0.262 NA
BRANCH  22  23
ATOM     23  C   UNL     1       8.940  -0.959  -0.132  1.00  0.00     0.180 C 
BRANCH  23  24
ATOM     24  C   UNL     1       8.465  -0.670   1.225  1.00  0.00    -0.026 A 
ATOM     25  C   UNL     1       8.461  -1.656   2.214  1.00  0.00     0.008 A 
ATOM     26  C   UNL     1       8.014   0.595   1.593  1.00  0.00     0.008 A 
ATOM     27  C   UNL     1       8.030  -1.401   3.501  1.00  0.00     0.039 A 
ATOM     28  C   UNL     1       7.582   0.877   2.858  1.00  0.00     0.039 A 
ATOM     29  C   UNL     1       7.594  -0.137   3.815  1.00  0.00     0.123 A 
ATOM     30  F   UNL     1       7.164   0.159   5.058  1.00  0.00    -0.207 F 
ENDBRANCH  23  24
ENDBRANCH  22  23
ENDBRANCH   5  22
TORSDOF 6
ENDMDL
MODEL 2
REMARK VINA RESULT:       6.0      3.590      6.295
REMARK SMILES COc1cc2c(cc1O)CN(c1cncc(=NCc3ccc(F)cc3)[nH]1)CC2
REMARK SMILES IDX 12 1 13 2 14 3 15 4 16 5 26 6 11 8 3 9 4 10 8 11 5 12 7 13
REMARK SMILES IDX 6 14 28 15 10 16 27 17 2 18 1 19 9 20 17 22 18 23 19 24
REMARK SMILES IDX 20 25 25 26 21 27 24 28 22 29 23 30
REMARK H PARENT 26 7 9 21
ROOT
ATOM      1  C   UNL     1       8.044   2.557  -0.377  1.00  0.00     0.126 A 
ATOM      2  C   UNL     1       9.082   2.946  -1.193  1.00  0.00     0.156 A 
ATOM      3  N   UNL     1       8.821   3.729  -2.282  1.00  0.00    -0.257 NA
ATOM      4  C   UNL     1       7.548   4.115  -2.544  1.00  0.00     0.157 A 
ATOM      5  C   UNL     1       6.493   3.739  -1.743  1.00  0.00     0.145 A 
ATOM      6  N   UNL     1       6.797   2.951  -0.659  1.00  0.00    -0.324 N 
ATOM      7  H   UNL     1       6.006   2.674  -0.062  1.00  0.00     0.170 HD
ENDROOT
BRANCH   1   8
ATOM      8  N   UNL     1       8.372   1.749   0.764  1.00  0.00    -0.352 N 
ATOM      9  C   UNL     1       8.224  -2.193   3.878  1.00  0.00     0.160 A 
ATOM     10  C   UNL     1       9.057  -1.778   2.862  1.00  0.00     0.054 A 
ATOM     11  C   UNL     1       7.100  -1.421   4.152  1.00  0.00     0.157 A 
ATOM     12  C   UNL     1       8.812  -0.635   2.119  1.00  0.00    -0.037 A 
ATOM     13  C   UNL     1       6.843  -0.271   3.412  1.00  0.00     0.056 A 
ATOM     14  C   UNL     1       7.706   0.132   2.382  1.00  0.00    -0.021 A 
ATOM     15  C   UNL     1       9.739  -0.213   1.022  1.00  0.00     0.057 C 
ATOM     16  C   UNL     1       7.323   1.364   1.660  1.00  0.00     0.154 C 
ATOM     17  C   UNL     1       9.722   1.322   1.070  1.00  0.00     0.123 C 
BRANCH   9  18
ATOM     18  O   UNL     1       8.422  -3.320   4.645  1.00  0.00    -0.493 OA
ATOM     19  C   UNL     1       9.723  -3.694   5.047  1.00  0.00     0.278 C 
ENDBRANCH   9  18
BRANCH  11  20
ATOM     20  O   UNL     1       6.193  -1.737   5.146  1.00  0.00    -0.504 OA
ATOM     21  H   UNL     1       5.198  -1.606   5.018  1.00  0.00     0.293 HD
ENDBRANCH  11  20
ENDBRANCH   1   8
BRANCH   5  22
ATOM     22  N   UNL     1       5.309   4.051  -1.911  1.00  0.00    -0.262 NA
BRANCH  22  23
ATOM     23  C   UNL     1       4.050   3.873  -1.370  1.00  0.00     0.180 C 
BRANCH  23  24
ATOM     24  C   UNL     1       3.632   2.544  -0.917  1.00  0.00    -0.026 A 
ATOM     25  C   UNL     1       2.936   2.376   0.282  1.00  0.00     0.008 A 
ATOM     26  C   UNL     1       3.893   1.397  -1.661  1.00  0.00     0.008 A 
ATOM     27  C   UNL     1       2.522   1.133   0.721  1.00  0.00     0.039 A 
ATOM     28  C   UNL     1       3.496   0.154  -1.253  1.00  0.00     0.039 A 
ATOM     29  C   UNL     1       2.804   0.031  -0.049  1.00  0.00     0.123 A 
ATOM     30  F   UNL     1       2.420  -1.202   0.339  1.00  0.00    -0.207 F 
ENDBRANCH  23  24
ENDBRANCH  22  23
ENDBRANCH   5  22
TORSDOF 6
ENDMDL
