MODEL 1
REMARK VINA RESULT:      -2.2      0.000      0.000
REMARK SMILES CSc1nc(SC)n2nc(-c3ccc(F)cc3)cnc12
REMARK SMILES IDX 3 1 4 2 5 3 8 4 9 5 10 6 18 7 19 8 20 9 2 10 1 11 6 12 7 13
REMARK SMILES IDX 11 14 12 15 17 16 13 17 16 18 14 19 15 20
REMARK H PARENT
ROOT
ATOM      1  C   UNL     1       8.159  -0.162   4.083  1.00  0.00     0.144 A 
ATOM      2  N   UNL     1       8.830   0.793   4.754  1.00  0.00    -0.212 NA
ATOM      3  C   UNL     1       8.571   1.993   4.182  1.00  0.00     0.191 A 
ATOM      4  N   UNL     1       7.727   1.824   3.131  1.00  0.00    -0.187 N 
ATOM      5  N   UNL     1       7.199   2.697   2.278  1.00  0.00    -0.162 NA
ATOM      6  C   UNL     1       6.378   2.205   1.324  1.00  0.00     0.110 A 
ATOM      7  C   UNL     1       6.124   0.855   1.266  1.00  0.00     0.144 A 
ATOM      8  N   UNL     1       6.668  -0.027   2.141  1.00  0.00    -0.232 NA
ATOM      9  C   UNL     1       7.477   0.504   3.073  1.00  0.00     0.189 A 
ENDROOT
BRANCH   1  10
ATOM     10  S   UNL     1       8.131  -1.932   4.402  1.00  0.00    -0.106 SA
ATOM     11  C   UNL     1       9.740  -2.449   5.062  1.00  0.00     0.092 C 
ENDBRANCH   1  10
BRANCH   3  12
ATOM     12  S   UNL     1       9.284   3.515   4.793  1.00  0.00    -0.090 SA
ATOM     13  C   UNL     1       7.940   4.673   5.211  1.00  0.00     0.094 C 
ENDBRANCH   3  12
BRANCH   6  14
ATOM     14  C   UNL     1       5.793   3.138   0.384  1.00  0.00     0.004 A 
ATOM     15  C   UNL     1       4.821   2.652  -0.494  1.00  0.00     0.013 A 
ATOM     16  C   UNL     1       6.109   4.455   0.283  1.00  0.00     0.013 A 
ATOM     17  C   UNL     1       4.214   3.492  -1.426  1.00  0.00     0.040 A 
ATOM     18  C   UNL     1       5.508   5.306  -0.646  1.00  0.00     0.040 A 
ATOM     19  C   UNL     1       4.555   4.823  -1.505  1.00  0.00     0.123 A 
ATOM     20  F   UNL     1       4.003   5.689  -2.386  1.00  0.00    -0.207 F 
ENDBRANCH   6  14
TORSDOF 3
ENDMDL
MODEL 2
REMARK VINA RESULT:      -1.4      4.134      7.048
REMARK SMILES CSc1nc(SC)n2nc(-c3ccc(F)cc3)cnc12
REMARK SMILES IDX 3 1 4 2 5 3 8 4 9 5 10 6 18 7 19 8 20 9 2 10 1 11 6 12 7 13
REMARK SMILES IDX 11 14 12 15 17 16 13 17 16 18 14 19 15 20
REMARK H PARENT
ROOT
ATOM      1  C   UNL     1       5.930   5.058  -0.687  1.00  0.00     0.144 A 
ATOM      2  N   UNL     1       7.068   5.375  -1.332  1.00  0.00    -0.212 NA
ATOM      3  C   UNL     1       8.053   4.546  -0.915  1.00  0.00     0.191 A 
ATOM      4  N   UNL     1       7.560   3.681   0.008  1.00  0.00    -0.187 N 
ATOM      5  N   UNL     1       8.139   2.698   0.692  1.00  0.00    -0.162 NA
ATOM      6  C   UNL     1       7.362   2.006   1.553  1.00  0.00     0.110 A 
ATOM      7  C   UNL     1       6.033   2.331   1.692  1.00  0.00     0.144 A 
ATOM      8  N   UNL     1       5.451   3.335   0.990  1.00  0.00    -0.232 NA
ATOM      9  C   UNL     1       6.259   3.997   0.146  1.00  0.00     0.189 A 
ENDROOT
BRANCH   1  10
ATOM     10  S   UNL     1       4.310   5.826  -0.847  1.00  0.00    -0.106 SA
ATOM     11  C   UNL     1       3.096   4.572  -1.336  1.00  0.00     0.092 C 
ENDBRANCH   1  10
BRANCH   3  12
ATOM     12  S   UNL     1       9.723   4.655  -1.546  1.00  0.00    -0.090 SA
ATOM     13  C   UNL     1       9.719   4.206  -3.313  1.00  0.00     0.094 C 
ENDBRANCH   3  12
BRANCH   6  14
ATOM     14  C   UNL     1       7.973   0.932   2.307  1.00  0.00     0.004 A 
ATOM     15  C   UNL     1       8.293   1.178   3.644  1.00  0.00     0.013 A 
ATOM     16  C   UNL     1       8.265  -0.303   1.823  1.00  0.00     0.013 A 
ATOM     17  C   UNL     1       8.884   0.192   4.432  1.00  0.00     0.040 A 
ATOM     18  C   UNL     1       8.857  -1.299   2.602  1.00  0.00     0.040 A 
ATOM     19  C   UNL     1       9.168  -1.051   3.913  1.00  0.00     0.123 A 
ATOM     20  F   UNL     1       9.740  -2.049   4.625  1.00  0.00    -0.207 F 
ENDBRANCH   6  14
TORSDOF 3
ENDMDL
MODEL 3
REMARK VINA RESULT:      -1.3      1.174      1.174
REMARK SMILES CSc1nc(SC)n2nc(-c3ccc(F)cc3)cnc12
REMARK SMILES IDX 3 1 4 2 5 3 8 4 9 5 10 6 18 7 19 8 20 9 2 10 1 11 6 12 7 13
REMARK SMILES IDX 11 14 12 15 17 16 13 17 16 18 14 19 15 20
REMARK H PARENT
ROOT
ATOM      1  C   UNL     1       9.202   0.531   4.431  1.00  0.00     0.144 A 
ATOM      2  N   UNL     1       9.736   1.633   4.990  1.00  0.00    -0.212 NA
ATOM      3  C   UNL     1       9.238   2.726   4.365  1.00  0.00     0.191 A 
ATOM      4  N   UNL     1       8.375   2.340   3.390  1.00  0.00    -0.187 N 
ATOM      5  N   UNL     1       7.653   3.045   2.524  1.00  0.00    -0.162 NA
ATOM      6  C   UNL     1       6.875   2.352   1.664  1.00  0.00     0.110 A 
ATOM      7  C   UNL     1       6.856   0.978   1.709  1.00  0.00     0.144 A 
ATOM      8  N   UNL     1       7.597   0.268   2.596  1.00  0.00    -0.232 NA
ATOM      9  C   UNL     1       8.355   0.995   3.433  1.00  0.00     0.189 A 
ENDROOT
BRANCH   1  10
ATOM     10  S   UNL     1       9.503  -1.190   4.860  1.00  0.00    -0.106 SA
ATOM     11  C   UNL     1       8.162  -2.217   4.199  1.00  0.00     0.092 C 
ENDBRANCH   1  10
BRANCH   3  12
ATOM     12  S   UNL     1       9.712   4.388   4.827  1.00  0.00    -0.090 SA
ATOM     13  C   UNL     1       9.718   5.438   3.337  1.00  0.00     0.094 C 
ENDBRANCH   3  12
BRANCH   6  14
ATOM     14  C   UNL     1       6.081   3.101   0.713  1.00  0.00     0.004 A 
ATOM     15  C   UNL     1       5.852   2.523  -0.539  1.00  0.00     0.013 A 
ATOM     16  C   UNL     1       5.535   4.324   0.934  1.00  0.00     0.013 A 
ATOM     17  C   UNL     1       5.097   3.186  -1.506  1.00  0.00     0.040 A 
ATOM     18  C   UNL     1       4.777   4.997  -0.026  1.00  0.00     0.040 A 
ATOM     19  C   UNL     1       4.557   4.426  -1.252  1.00  0.00     0.123 A 
ATOM     20  F   UNL     1       3.815   5.119  -2.147  1.00  0.00    -0.207 F 
ENDBRANCH   6  14
TORSDOF 3
ENDMDL
MODEL 4
REMARK VINA RESULT:      -1.2      2.171      4.046
REMARK SMILES CSc1nc(SC)n2nc(-c3ccc(F)cc3)cnc12
REMARK SMILES IDX 3 1 4 2 5 3 8 4 9 5 10 6 18 7 19 8 20 9 2 10 1 11 6 12 7 13
REMARK SMILES IDX 11 14 12 15 17 16 13 17 16 18 14 19 15 20
REMARK H PARENT
ROOT
ATOM      1  C   UNL     1       9.052   2.252   4.096  1.00  0.00     0.144 A 
ATOM      2  N   UNL     1       9.535   0.996   4.148  1.00  0.00    -0.212 NA
ATOM      3  C   UNL     1       8.814   0.216   3.308  1.00  0.00     0.191 A 
ATOM      4  N   UNL     1       7.854   0.961   2.704  1.00  0.00    -0.187 N 
ATOM      5  N   UNL     1       6.919   0.639   1.815  1.00  0.00    -0.162 NA
ATOM      6  C   UNL     1       6.099   1.629   1.399  1.00  0.00     0.110 A 
ATOM      7  C   UNL     1       6.252   2.902   1.895  1.00  0.00     0.144 A 
ATOM      8  N   UNL     1       7.209   3.220   2.802  1.00  0.00    -0.232 NA
ATOM      9  C   UNL     1       8.002   2.208   3.189  1.00  0.00     0.189 A 
ENDROOT
BRANCH   1  10
ATOM     10  S   UNL     1       9.623   3.700   4.998  1.00  0.00    -0.106 SA
ATOM     11  C   UNL     1       9.267   5.190   4.029  1.00  0.00     0.092 C 
ENDBRANCH   1  10
BRANCH   3  12
ATOM     12  S   UNL     1       9.155  -1.528   3.099  1.00  0.00    -0.090 SA
ATOM     13  C   UNL     1       9.740  -1.817   1.397  1.00  0.00     0.094 C 
ENDBRANCH   3  12
BRANCH   6  14
ATOM     14  C   UNL     1       5.074   1.299   0.431  1.00  0.00     0.004 A 
ATOM     15  C   UNL     1       4.027   0.474   0.849  1.00  0.00     0.013 A 
ATOM     16  C   UNL     1       5.042   1.727  -0.858  1.00  0.00     0.013 A 
ATOM     17  C   UNL     1       3.005   0.114  -0.028  1.00  0.00     0.040 A 
ATOM     18  C   UNL     1       4.024   1.373  -1.745  1.00  0.00     0.040 A 
ATOM     19  C   UNL     1       3.000   0.563  -1.329  1.00  0.00     0.123 A 
ATOM     20  F   UNL     1       2.038   0.250  -2.227  1.00  0.00    -0.207 F 
ENDBRANCH   6  14
TORSDOF 3
ENDMDL
MODEL 5
REMARK VINA RESULT:      -1.2      1.760      3.916
REMARK SMILES CSc1nc(SC)n2nc(-c3ccc(F)cc3)cnc12
REMARK SMILES IDX 3 1 4 2 5 3 8 4 9 5 10 6 18 7 19 8 20 9 2 10 1 11 6 12 7 13
REMARK SMILES IDX 11 14 12 15 17 16 13 17 16 18 14 19 15 20
REMARK H PARENT
ROOT
ATOM      1  C   UNL     1       8.930   2.912   4.224  1.00  0.00     0.144 A 
ATOM      2  N   UNL     1       9.189   1.636   4.567  1.00  0.00    -0.212 NA
ATOM      3  C   UNL     1       8.417   0.816   3.815  1.00  0.00     0.191 A 
ATOM      4  N   UNL     1       7.648   1.557   2.976  1.00  0.00    -0.187 N 
ATOM      5  N   UNL     1       6.747   1.202   2.065  1.00  0.00    -0.162 NA
ATOM      6  C   UNL     1       6.141   2.196   1.379  1.00  0.00     0.110 A 
ATOM      7  C   UNL     1       6.465   3.507   1.639  1.00  0.00     0.144 A 
ATOM      8  N   UNL     1       7.386   3.858   2.570  1.00  0.00    -0.232 NA
ATOM      9  C   UNL     1       7.964   2.840   3.229  1.00  0.00     0.189 A 
ENDROOT
BRANCH   1  10
ATOM     10  S   UNL     1       9.662   4.413   4.894  1.00  0.00    -0.106 SA
ATOM     11  C   UNL     1       9.220   5.820   3.838  1.00  0.00     0.092 C 
ENDBRANCH   1  10
BRANCH   3  12
ATOM     12  S   UNL     1       8.474  -0.964   3.980  1.00  0.00    -0.090 SA
ATOM     13  C   UNL     1       9.738  -1.403   5.218  1.00  0.00     0.094 C 
ENDBRANCH   3  12
BRANCH   6  14
ATOM     14  C   UNL     1       5.156   1.831   0.382  1.00  0.00     0.004 A 
ATOM     15  C   UNL     1       4.785   2.804  -0.549  1.00  0.00     0.013 A 
ATOM     16  C   UNL     1       4.559   0.617   0.274  1.00  0.00     0.013 A 
ATOM     17  C   UNL     1       3.842   2.525  -1.538  1.00  0.00     0.040 A 
ATOM     18  C   UNL     1       3.614   0.326  -0.712  1.00  0.00     0.040 A 
ATOM     19  C   UNL     1       3.253   1.285  -1.623  1.00  0.00     0.123 A 
ATOM     20  F   UNL     1       2.334   0.952  -2.558  1.00  0.00    -0.207 F 
ENDBRANCH   6  14
TORSDOF 3
ENDMDL
MODEL 6
REMARK VINA RESULT:      -1.0      2.085      4.033
REMARK SMILES CSc1nc(SC)n2nc(-c3ccc(F)cc3)cnc12
REMARK SMILES IDX 3 1 4 2 5 3 8 4 9 5 10 6 18 7 19 8 20 9 2 10 1 11 6 12 7 13
REMARK SMILES IDX 11 14 12 15 17 16 13 17 16 18 14 19 15 20
REMARK H PARENT
ROOT
ATOM      1  C   UNL     1       9.115   2.308   4.181  1.00  0.00     0.144 A 
ATOM      2  N   UNL     1       9.723   1.112   4.067  1.00  0.00    -0.212 NA
ATOM      3  C   UNL     1       9.038   0.357   3.176  1.00  0.00     0.191 A 
ATOM      4  N   UNL     1       7.975   1.060   2.705  1.00  0.00    -0.187 N 
ATOM      5  N   UNL     1       7.029   0.741   1.827  1.00  0.00    -0.162 NA
ATOM      6  C   UNL     1       6.092   1.678   1.565  1.00  0.00     0.110 A 
ATOM      7  C   UNL     1       6.145   2.898   2.197  1.00  0.00     0.144 A 
ATOM      8  N   UNL     1       7.115   3.214   3.091  1.00  0.00    -0.232 NA
ATOM      9  C   UNL     1       8.026   2.254   3.323  1.00  0.00     0.189 A 
ENDROOT
BRANCH   1  10
ATOM     10  S   UNL     1       9.589   3.700   5.218  1.00  0.00    -0.106 SA
ATOM     11  C   UNL     1       8.593   5.148   4.772  1.00  0.00     0.092 C 
ENDBRANCH   1  10
BRANCH   3  12
ATOM     12  S   UNL     1       9.537  -1.307   2.753  1.00  0.00    -0.090 SA
ATOM     13  C   UNL     1       8.238  -2.073   1.729  1.00  0.00     0.094 C 
ENDBRANCH   3  12
BRANCH   6  14
ATOM     14  C   UNL     1       5.052   1.351   0.612  1.00  0.00     0.004 A 
ATOM     15  C   UNL     1       4.859   2.223  -0.462  1.00  0.00     0.013 A 
ATOM     16  C   UNL     1       4.243   0.262   0.673  1.00  0.00     0.013 A 
ATOM     17  C   UNL     1       3.875   1.973  -1.419  1.00  0.00     0.040 A 
ATOM     18  C   UNL     1       3.255   0.001  -0.279  1.00  0.00     0.040 A 
ATOM     19  C   UNL     1       3.070   0.861  -1.330  1.00  0.00     0.123 A 
ATOM     20  F   UNL     1       2.101   0.562  -2.226  1.00  0.00    -0.207 F 
ENDBRANCH   6  14
TORSDOF 3
ENDMDL
MODEL 7
REMARK VINA RESULT:      -0.6      3.741      6.572
REMARK SMILES CSc1nc(SC)n2nc(-c3ccc(F)cc3)cnc12
REMARK SMILES IDX 3 1 4 2 5 3 8 4 9 5 10 6 18 7 19 8 20 9 2 10 1 11 6 12 7 13
REMARK SMILES IDX 11 14 12 15 17 16 13 17 16 18 14 19 15 20
REMARK H PARENT
ROOT
ATOM      1  C   UNL     1       5.620   4.888   0.618  1.00  0.00     0.144 A 
ATOM      2  N   UNL     1       5.548   5.542   1.793  1.00  0.00    -0.212 NA
ATOM      3  C   UNL     1       6.016   4.733   2.773  1.00  0.00     0.191 A 
ATOM      4  N   UNL     1       6.395   3.543   2.239  1.00  0.00    -0.187 N 
ATOM      5  N   UNL     1       6.907   2.451   2.799  1.00  0.00    -0.162 NA
ATOM      6  C   UNL     1       7.183   1.412   1.981  1.00  0.00     0.110 A 
ATOM      7  C   UNL     1       6.933   1.514   0.632  1.00  0.00     0.144 A 
ATOM      8  N   UNL     1       6.411   2.633   0.071  1.00  0.00    -0.232 NA
ATOM      9  C   UNL     1       6.151   3.642   0.920  1.00  0.00     0.189 A 
ENDROOT
BRANCH   1  10
ATOM     10  S   UNL     1       5.136   5.477  -1.012  1.00  0.00    -0.106 SA
ATOM     11  C   UNL     1       4.311   4.138  -1.914  1.00  0.00     0.092 C 
ENDBRANCH   1  10
BRANCH   3  12
ATOM     12  S   UNL     1       6.081   5.248   4.484  1.00  0.00    -0.090 SA
ATOM     13  C   UNL     1       4.433   5.840   4.988  1.00  0.00     0.094 C 
ENDBRANCH   3  12
BRANCH   6  14
ATOM     14  C   UNL     1       7.741   0.213   2.570  1.00  0.00     0.004 A 
ATOM     15  C   UNL     1       9.131   0.130   2.679  1.00  0.00     0.013 A 
ATOM     16  C   UNL     1       7.024  -0.845   3.029  1.00  0.00     0.013 A 
ATOM     17  C   UNL     1       9.739  -0.995   3.235  1.00  0.00     0.040 A 
ATOM     18  C   UNL     1       7.621  -1.976   3.589  1.00  0.00     0.040 A 
ATOM     19  C   UNL     1       8.986  -2.052   3.692  1.00  0.00     0.123 A 
ATOM     20  F   UNL     1       9.515  -3.169   4.242  1.00  0.00    -0.207 F 
ENDBRANCH   6  14
TORSDOF 3
ENDMDL
MODEL 8
REMARK VINA RESULT:       0.1      2.786      4.153
REMARK SMILES CSc1nc(SC)n2nc(-c3ccc(F)cc3)cnc12
REMARK SMILES IDX 3 1 4 2 5 3 8 4 9 5 10 6 18 7 19 8 20 9 2 10 1 11 6 12 7 13
REMARK SMILES IDX 11 14 12 15 17 16 13 17 16 18 14 19 15 20
REMARK H PARENT
ROOT
ATOM      1  C   UNL     1       9.079   4.202   3.046  1.00  0.00     0.144 A 
ATOM      2  N   UNL     1       9.486   5.054   2.086  1.00  0.00    -0.212 NA
ATOM      3  C   UNL     1       8.717   4.874   0.987  1.00  0.00     0.191 A 
ATOM      4  N   UNL     1       7.802   3.899   1.225  1.00  0.00    -0.187 N 
ATOM      5  N   UNL     1       6.847   3.382   0.458  1.00  0.00    -0.162 NA
ATOM      6  C   UNL     1       6.086   2.404   0.998  1.00  0.00     0.110 A 
ATOM      7  C   UNL     1       6.318   1.987   2.288  1.00  0.00     0.144 A 
ATOM      8  N   UNL     1       7.294   2.522   3.062  1.00  0.00    -0.232 NA
ATOM      9  C   UNL     1       8.027   3.490   2.487  1.00  0.00     0.189 A 
ENDROOT
BRANCH   1  10
ATOM     10  S   UNL     1       9.739   4.004   4.708  1.00  0.00    -0.106 SA
ATOM     11  C   UNL     1       9.571   2.272   5.218  1.00  0.00     0.092 C 
ENDBRANCH   1  10
BRANCH   3  12
ATOM     12  S   UNL     1       8.952   5.827  -0.508  1.00  0.00    -0.090 SA
ATOM     13  C   UNL     1       7.876   5.152  -1.816  1.00  0.00     0.094 C 
ENDBRANCH   3  12
BRANCH   6  14
ATOM     14  C   UNL     1       5.041   1.827   0.179  1.00  0.00     0.004 A 
ATOM     15  C   UNL     1       4.687   2.501  -0.992  1.00  0.00     0.013 A 
ATOM     16  C   UNL     1       4.371   0.678   0.454  1.00  0.00     0.013 A 
ATOM     17  C   UNL     1       3.689   2.005  -1.829  1.00  0.00     0.040 A 
ATOM     18  C   UNL     1       3.370   0.171  -0.377  1.00  0.00     0.040 A 
ATOM     19  C   UNL     1       3.027   0.837  -1.525  1.00  0.00     0.123 A 
ATOM     20  F   UNL     1       2.051   0.304  -2.296  1.00  0.00    -0.207 F 
ENDBRANCH   6  14
TORSDOF 3
ENDMDL
MODEL 9
REMARK VINA RESULT:       0.2      3.352      5.108
REMARK SMILES CSc1nc(SC)n2nc(-c3ccc(F)cc3)cnc12
REMARK SMILES IDX 3 1 4 2 5 3 8 4 9 5 10 6 18 7 19 8 20 9 2 10 1 11 6 12 7 13
REMARK SMILES IDX 11 14 12 15 17 16 13 17 16 18 14 19 15 20
REMARK H PARENT
ROOT
ATOM      1  C   UNL     1       8.272   5.108   2.632  1.00  0.00     0.144 A 
ATOM      2  N   UNL     1       8.248   5.842   1.503  1.00  0.00    -0.212 NA
ATOM      3  C   UNL     1       7.550   5.169   0.559  1.00  0.00     0.191 A 
ATOM      4  N   UNL     1       7.115   3.988   1.069  1.00  0.00    -0.187 N 
ATOM      5  N   UNL     1       6.402   3.005   0.527  1.00  0.00    -0.162 NA
ATOM      6  C   UNL     1       6.127   1.940   1.312  1.00  0.00     0.110 A 
ATOM      7  C   UNL     1       6.582   1.906   2.609  1.00  0.00     0.144 A 
ATOM      8  N   UNL     1       7.309   2.914   3.152  1.00  0.00    -0.232 NA
ATOM      9  C   UNL     1       7.560   3.954   2.338  1.00  0.00     0.189 A 
ENDROOT
BRANCH   1  10
ATOM     10  S   UNL     1       9.055   5.510   4.201  1.00  0.00    -0.106 SA
ATOM     11  C   UNL     1       9.563   3.978   5.029  1.00  0.00     0.092 C 
ENDBRANCH   1  10
BRANCH   3  12
ATOM     12  S   UNL     1       7.295   5.823  -1.086  1.00  0.00    -0.090 SA
ATOM     13  C   UNL     1       5.521   5.727  -1.494  1.00  0.00     0.094 C 
ENDBRANCH   3  12
BRANCH   6  14
ATOM     14  C   UNL     1       5.352   0.858   0.742  1.00  0.00     0.004 A 
ATOM     15  C   UNL     1       4.120   0.562   1.331  1.00  0.00     0.013 A 
ATOM     16  C   UNL     1       5.722   0.101  -0.324  1.00  0.00     0.013 A 
ATOM     17  C   UNL     1       3.320  -0.467   0.836  1.00  0.00     0.040 A 
ATOM     18  C   UNL     1       4.929  -0.931  -0.828  1.00  0.00     0.040 A 
ATOM     19  C   UNL     1       3.721  -1.217  -0.246  1.00  0.00     0.123 A 
ATOM     20  F   UNL     1       2.990  -2.226  -0.773  1.00  0.00    -0.207 F 
ENDBRANCH   6  14
TORSDOF 3
ENDMDL
