MODEL 1
REMARK VINA RESULT:      -0.3      0.000      0.000
REMARK SMILES COC(=O)CC1CCc2nc(-c3cc(CC(=O)O)ccc3OC)n(C(C)C)c21
REMARK SMILES IDX 6 1 7 2 8 3 9 4 10 5 11 6 24 7 28 8 5 9 3 10 4 11 2 12 1 13
REMARK SMILES IDX 25 14 26 15 27 16 12 17 13 18 21 19 14 20 20 21 19 22 22 23
REMARK SMILES IDX 23 24 15 25 16 26 17 27 18 28
REMARK H PARENT 18 29
ROOT
ATOM      1  C   UNL     1       5.989   4.031  -1.886  1.00  0.00     0.049 C 
ATOM      2  C   UNL     1       4.577   4.588  -1.901  1.00  0.00     0.017 C 
ATOM      3  C   UNL     1       4.344   4.952  -0.477  1.00  0.00     0.059 C 
ATOM      4  C   UNL     1       5.205   3.978   0.258  1.00  0.00     0.063 A 
ATOM      5  N   UNL     1       5.333   3.467   1.471  1.00  0.00    -0.233 NA
ATOM      6  C   UNL     1       6.367   2.580   1.486  1.00  0.00     0.144 A 
ATOM      7  N   UNL     1       6.868   2.564   0.248  1.00  0.00    -0.325 N 
ATOM      8  C   UNL     1       6.160   3.434  -0.552  1.00  0.00     0.045 A 
ENDROOT
BRANCH   1   9
ATOM      9  C   UNL     1       7.022   5.087  -2.073  1.00  0.00     0.132 C 
BRANCH   9  10
ATOM     10  C   UNL     1       8.401   4.616  -2.263  1.00  0.00     0.306 C 
ATOM     11  O   UNL     1       8.694   4.114  -3.393  1.00  0.00    -0.252 OA
BRANCH  10  12
ATOM     12  O   UNL     1       9.384   4.700  -1.257  1.00  0.00    -0.469 OA
ATOM     13  C   UNL     1       9.384   5.776  -0.325  1.00  0.00     0.282 C 
ENDBRANCH  10  12
ENDBRANCH   9  10
ENDBRANCH   1   9
BRANCH   7  14
ATOM     14  C   UNL     1       7.990   1.846  -0.313  1.00  0.00     0.083 C 
ATOM     15  C   UNL     1       7.726   0.354  -0.361  1.00  0.00     0.031 C 
ATOM     16  C   UNL     1       9.270   2.040   0.509  1.00  0.00     0.031 C 
ENDBRANCH   7  14
BRANCH   6  17
ATOM     17  C   UNL     1       6.750   1.921   2.719  1.00  0.00     0.060 A 
ATOM     18  C   UNL     1       6.847   0.580   2.950  1.00  0.00     0.020 A 
ATOM     19  C   UNL     1       7.132   2.735   3.792  1.00  0.00     0.129 A 
ATOM     20  C   UNL     1       7.299   0.046   4.165  1.00  0.00    -0.036 A 
ATOM     21  C   UNL     1       7.573   2.224   4.987  1.00  0.00     0.047 A 
ATOM     22  C   UNL     1       7.667   0.878   5.198  1.00  0.00     0.008 A 
BRANCH  19  23
ATOM     23  O   UNL     1       7.069   4.108   3.665  1.00  0.00    -0.496 OA
ATOM     24  C   UNL     1       5.886   4.806   3.965  1.00  0.00     0.278 C 
ENDBRANCH  19  23
BRANCH  20  25
ATOM     25  C   UNL     1       7.387  -1.413   4.359  1.00  0.00     0.158 C 
BRANCH  25  26
ATOM     26  C   UNL     1       8.787  -1.908   4.268  1.00  0.00     0.307 C 
ATOM     27  O   UNL     1       9.721  -1.439   5.002  1.00  0.00    -0.252 OA
BRANCH  26  28
ATOM     28  O   UNL     1       9.054  -2.910   3.349  1.00  0.00    -0.481 OA
ATOM     29  H   UNL     1       9.301  -2.705   2.371  1.00  0.00     0.296 HD
ENDBRANCH  26  28
ENDBRANCH  25  26
ENDBRANCH  20  25
ENDBRANCH   6  17
TORSDOF 9
ENDMDL
