MODEL 1
REMARK VINA RESULT:      18.1      0.000      0.000
REMARK SMILES COc1ccc(C(=Nc2ccc(N3CCN(C)CC3)cc2)c2c(O)[nH]c3ccccc23)c(O)c1
REMARK SMILES IDX 7 1 6 2 3 3 4 4 34 5 5 6 32 7 2 8 1 9 33 10 8 12 9 13 10 14
REMARK SMILES IDX 21 15 11 16 20 17 12 18 13 19 14 20 19 21 15 22 18 23 16 24
REMARK SMILES IDX 17 25 22 26 23 27 31 28 25 29 30 30 26 31 29 32 27 33 28 34
REMARK SMILES IDX 24 36
REMARK H PARENT 33 11 25 35 24 37
ROOT
ATOM      1  C   UNL     1       9.332   2.917   0.435  1.00  0.00     0.088 C 
ENDROOT
BRANCH   1   2
ATOM      2  C   UNL     1       9.281   3.230   1.792  1.00  0.00     0.043 A 
ATOM      3  C   UNL     1       7.234   3.974   4.038  1.00  0.00     0.122 A 
ATOM      4  C   UNL     1       8.605   3.842   4.154  1.00  0.00     0.047 A 
ATOM      5  C   UNL     1       6.850   3.724   2.723  1.00  0.00     0.093 A 
ATOM      6  C   UNL     1       9.236   3.518   3.048  1.00  0.00     0.018 A 
ATOM      7  C   UNL     1       7.612   3.408   1.711  1.00  0.00     0.128 A 
BRANCH   3   8
ATOM      8  O   UNL     1       6.353   4.292   5.001  1.00  0.00    -0.497 OA
ATOM      9  C   UNL     1       5.547   5.474   4.824  1.00  0.00     0.278 C 
ENDBRANCH   3   8
BRANCH   7  10
ATOM     10  O   UNL     1       7.067   3.209   0.489  1.00  0.00    -0.507 OA
ATOM     11  H   UNL     1       6.097   2.912   0.367  1.00  0.00     0.293 HD
ENDBRANCH   7  10
ENDBRANCH   1   2
BRANCH   1  12
ATOM     12  N   UNL     1       9.151   1.665   0.106  1.00  0.00    -0.247 NA
BRANCH  12  13
ATOM     13  C   UNL     1       8.160   0.755   0.160  1.00  0.00     0.064 A 
ATOM     14  C   UNL     1       7.695  -0.004   1.214  1.00  0.00     0.030 A 
ATOM     15  C   UNL     1       7.440   0.535  -1.046  1.00  0.00     0.030 A 
ATOM     16  C   UNL     1       6.634  -0.886   1.118  1.00  0.00     0.028 A 
ATOM     17  C   UNL     1       6.406  -0.324  -1.150  1.00  0.00     0.028 A 
ATOM     18  C   UNL     1       5.985  -1.043  -0.074  1.00  0.00     0.037 A 
BRANCH  18  19
ATOM     19  N   UNL     1       4.853  -1.894  -0.258  1.00  0.00    -0.369 N 
ATOM     20  C   UNL     1       3.530  -1.316  -0.088  1.00  0.00     0.132 C 
ATOM     21  C   UNL     1       5.081  -3.266  -0.578  1.00  0.00     0.132 C 
ATOM     22  C   UNL     1       2.554  -1.990  -1.029  1.00  0.00     0.105 C 
ATOM     23  C   UNL     1       3.841  -4.036  -0.724  1.00  0.00     0.105 C 
ATOM     24  N   UNL     1       2.611  -3.403  -0.979  1.00  0.00    -0.303 NA
ATOM     25  C   UNL     1       1.469  -3.993  -0.291  1.00  0.00     0.105 C 
ENDBRANCH  18  19
ENDBRANCH  12  13
ENDBRANCH   1  12
BRANCH   1  26
ATOM     26  C   UNL     1       9.272   3.757  -0.761  1.00  0.00     0.070 A 
ATOM     27  C   UNL     1       9.102   5.113  -0.736  1.00  0.00     0.199 A 
ATOM     28  C   UNL     1       9.408   3.293  -2.059  1.00  0.00     0.013 A 
ATOM     29  N   UNL     1       9.134   5.476  -2.040  1.00  0.00    -0.325 N 
ATOM     30  C   UNL     1       9.604   2.040  -2.536  1.00  0.00     0.011 A 
ATOM     31  C   UNL     1       9.311   4.439  -2.842  1.00  0.00     0.049 A 
ATOM     32  C   UNL     1       9.732   1.782  -3.924  1.00  0.00     0.001 A 
ATOM     33  C   UNL     1       9.435   4.191  -4.215  1.00  0.00     0.027 A 
ATOM     34  C   UNL     1       9.629   2.959  -4.677  1.00  0.00     0.002 A 
ATOM     35  H   UNL     1       9.033   6.450  -2.341  1.00  0.00     0.170 HD
BRANCH  27  36
ATOM     36  O   UNL     1       8.944   5.846   0.414  1.00  0.00    -0.494 OA
ATOM     37  H   UNL     1       9.580   6.596   0.674  1.00  0.00     0.295 HD
ENDBRANCH  27  36
ENDBRANCH   1  26
TORSDOF 8
ENDMDL
