MODEL 1
REMARK VINA RESULT:      -1.2      0.000      0.000
REMARK SMILES CCc1nc2c(C)ccnc2n1Cc1ccc(C(=O)N2CCOCC2)cc1
REMARK SMILES IDX 13 1 12 2 3 3 4 4 5 5 11 6 6 7 10 8 8 9 9 10 7 11 2 12 1 13
REMARK SMILES IDX 14 14 15 15 27 16 16 17 26 18 17 19 18 20 20 21 21 22 25 23
REMARK SMILES IDX 22 24 24 25 23 26 19 27
REMARK H PARENT
ROOT
ATOM      1  C   UNL     1       4.767   2.639  -1.167  1.00  0.00     0.161 C 
ENDROOT
BRANCH   1   2
ATOM      2  N   UNL     1       5.718   3.661  -1.556  1.00  0.00    -0.308 N 
ATOM      3  C   UNL     1       5.493   4.957  -1.819  1.00  0.00     0.111 A 
ATOM      4  N   UNL     1       6.680   5.544  -2.124  1.00  0.00    -0.231 NA
ATOM      5  C   UNL     1       7.611   4.590  -2.044  1.00  0.00     0.111 A 
ATOM      6  C   UNL     1       7.045   3.381  -1.685  1.00  0.00     0.160 A 
ATOM      7  C   UNL     1       8.982   4.591  -2.245  1.00  0.00    -0.020 A 
ATOM      8  N   UNL     1       7.745   2.252  -1.532  1.00  0.00    -0.237 NA
ATOM      9  C   UNL     1       9.738   3.436  -2.092  1.00  0.00     0.026 A 
ATOM     10  C   UNL     1       9.074   2.288  -1.734  1.00  0.00     0.114 A 
ATOM     11  C   UNL     1       9.702   5.841  -2.644  1.00  0.00     0.047 C 
BRANCH   3  12
ATOM     12  C   UNL     1       4.158   5.644  -1.763  1.00  0.00     0.072 C 
ATOM     13  C   UNL     1       3.707   5.820  -0.342  1.00  0.00     0.012 C 
ENDBRANCH   3  12
ENDBRANCH   1   2
BRANCH   1  14
ATOM     14  C   UNL     1       5.134   1.905   0.047  1.00  0.00    -0.028 A 
ATOM     15  C   UNL     1       5.452   0.540  -0.058  1.00  0.00     0.006 A 
ATOM     16  C   UNL     1       5.176   2.476   1.316  1.00  0.00     0.006 A 
ATOM     17  C   UNL     1       5.796  -0.218   1.035  1.00  0.00     0.014 A 
ATOM     18  C   UNL     1       5.515   1.739   2.435  1.00  0.00     0.014 A 
ATOM     19  C   UNL     1       5.823   0.411   2.290  1.00  0.00     0.040 A 
BRANCH  19  20
ATOM     20  C   UNL     1       6.228  -0.454   3.394  1.00  0.00     0.254 C 
ATOM     21  N   UNL     1       7.422  -0.233   4.118  1.00  0.00    -0.334 N 
ATOM     22  C   UNL     1       7.839  -1.077   5.216  1.00  0.00     0.148 C 
ATOM     23  C   UNL     1       8.299   0.887   3.764  1.00  0.00     0.148 C 
ATOM     24  C   UNL     1       9.181  -1.687   4.823  1.00  0.00     0.181 C 
ATOM     25  C   UNL     1       9.722   0.334   3.865  1.00  0.00     0.181 C 
ATOM     26  O   UNL     1       9.714  -1.041   3.708  1.00  0.00    -0.378 OA
ATOM     27  O   UNL     1       5.458  -1.435   3.696  1.00  0.00    -0.269 OA
ENDBRANCH  19  20
ENDBRANCH   1  14
TORSDOF 4
ENDMDL
