MODEL 1
REMARK VINA RESULT:      -3.1      0.000      0.000
REMARK SMILES COc1ccc(C(c2ccc(Cl)cc2)c2ccccn2)cc1
REMARK SMILES IDX 3 1 4 2 5 3 6 4 21 5 22 6 2 7 1 8 7 9 8 10 9 11 14 12 10 13
REMARK SMILES IDX 13 14 11 15 12 16 15 17 16 18 20 19 17 20 19 21 18 22
REMARK H PARENT
ROOT
ATOM      1  C   UNL     1       9.226   3.049  -3.043  1.00  0.00     0.118 A 
ATOM      2  C   UNL     1       9.551   1.700  -3.077  1.00  0.00     0.047 A 
ATOM      3  C   UNL     1       9.050   0.831  -2.132  1.00  0.00     0.008 A 
ATOM      4  C   UNL     1       8.215   1.259  -1.124  1.00  0.00    -0.034 A 
ATOM      5  C   UNL     1       7.904   2.613  -1.110  1.00  0.00     0.008 A 
ATOM      6  C   UNL     1       8.394   3.489  -2.045  1.00  0.00     0.047 A 
ENDROOT
BRANCH   1   7
ATOM      7  O   UNL     1       9.727   3.948  -4.002  1.00  0.00    -0.497 OA
ATOM      8  C   UNL     1       9.718   5.345  -3.681  1.00  0.00     0.278 C 
ENDBRANCH   1   7
BRANCH   4   9
ATOM      9  C   UNL     1       7.637   0.406  -0.079  1.00  0.00     0.098 C 
BRANCH   9  10
ATOM     10  C   UNL     1       6.189   0.563   0.127  1.00  0.00    -0.034 A 
ATOM     11  C   UNL     1       5.294  -0.421  -0.289  1.00  0.00     0.006 A 
ATOM     12  C   UNL     1       5.615   1.672   0.723  1.00  0.00     0.006 A 
ATOM     13  C   UNL     1       3.943  -0.269  -0.103  1.00  0.00     0.021 A 
ATOM     14  C   UNL     1       4.259   1.823   0.910  1.00  0.00     0.021 A 
ATOM     15  C   UNL     1       3.372   0.832   0.490  1.00  0.00     0.041 A 
ATOM     16  Cl  UNL     1       1.655   0.989   0.707  1.00  0.00    -0.084 Cl
ENDBRANCH   9  10
BRANCH   9  17
ATOM     17  C   UNL     1       8.355   0.468   1.203  1.00  0.00     0.052 A 
ATOM     18  C   UNL     1       8.628  -0.709   1.901  1.00  0.00     0.025 A 
ATOM     19  N   UNL     1       8.795   1.600   1.781  1.00  0.00    -0.260 NA
ATOM     20  C   UNL     1       9.299  -0.737   3.099  1.00  0.00     0.003 A 
ATOM     21  C   UNL     1       9.451   1.600   2.947  1.00  0.00     0.111 A 
ATOM     22  C   UNL     1       9.728   0.449   3.649  1.00  0.00     0.020 A 
ENDBRANCH   9  17
ENDBRANCH   4   9
TORSDOF 4
ENDMDL
MODEL 2
REMARK VINA RESULT:      -2.4      3.411      5.152
REMARK SMILES COc1ccc(C(c2ccc(Cl)cc2)c2ccccn2)cc1
REMARK SMILES IDX 3 1 4 2 5 3 6 4 21 5 22 6 2 7 1 8 7 9 8 10 9 11 14 12 10 13
REMARK SMILES IDX 13 14 11 15 12 16 15 17 16 18 20 19 17 20 19 21 18 22
REMARK H PARENT
ROOT
ATOM      1  C   UNL     1       8.646   4.517  -1.783  1.00  0.00     0.118 A 
ATOM      2  C   UNL     1       8.468   5.676  -1.039  1.00  0.00     0.047 A 
ATOM      3  C   UNL     1       8.171   5.611   0.306  1.00  0.00     0.008 A 
ATOM      4  C   UNL     1       8.039   4.407   0.962  1.00  0.00    -0.034 A 
ATOM      5  C   UNL     1       8.221   3.261   0.197  1.00  0.00     0.008 A 
ATOM      6  C   UNL     1       8.518   3.311  -1.141  1.00  0.00     0.047 A 
ENDROOT
BRANCH   1   7
ATOM      7  O   UNL     1       8.951   4.566  -3.154  1.00  0.00    -0.497 OA
ATOM      8  C   UNL     1       9.732   5.671  -3.629  1.00  0.00     0.278 C 
ENDBRANCH   1   7
BRANCH   4   9
ATOM      9  C   UNL     1       7.726   4.245   2.386  1.00  0.00     0.098 C 
BRANCH   9  10
ATOM     10  C   UNL     1       7.909   2.885   2.916  1.00  0.00    -0.034 A 
ATOM     11  C   UNL     1       8.953   2.591   3.793  1.00  0.00     0.006 A 
ATOM     12  C   UNL     1       7.091   1.818   2.589  1.00  0.00     0.006 A 
ATOM     13  C   UNL     1       9.126   1.320   4.279  1.00  0.00     0.021 A 
ATOM     14  C   UNL     1       7.267   0.543   3.080  1.00  0.00     0.021 A 
ATOM     15  C   UNL     1       8.313   0.260   3.956  1.00  0.00     0.041 A 
ATOM     16  Cl  UNL     1       8.566  -1.337   4.593  1.00  0.00    -0.084 Cl
ENDBRANCH   9  10
BRANCH   9  17
ATOM     17  C   UNL     1       6.412   4.781   2.770  1.00  0.00     0.052 A 
ATOM     18  C   UNL     1       6.158   5.102   4.103  1.00  0.00     0.025 A 
ATOM     19  N   UNL     1       5.397   5.004   1.917  1.00  0.00    -0.260 NA
ATOM     20  C   UNL     1       4.961   5.613   4.542  1.00  0.00     0.003 A 
ATOM     21  C   UNL     1       4.221   5.502   2.318  1.00  0.00     0.111 A 
ATOM     22  C   UNL     1       3.953   5.823   3.629  1.00  0.00     0.020 A 
ENDBRANCH   9  17
ENDBRANCH   4   9
TORSDOF 4
ENDMDL
MODEL 3
REMARK VINA RESULT:      -2.4      3.658      6.374
REMARK SMILES COc1ccc(C(c2ccc(Cl)cc2)c2ccccn2)cc1
REMARK SMILES IDX 3 1 4 2 5 3 6 4 21 5 22 6 2 7 1 8 7 9 8 10 9 11 14 12 10 13
REMARK SMILES IDX 13 14 11 15 12 16 15 17 16 18 20 19 17 20 19 21 18 22
REMARK H PARENT
ROOT
ATOM      1  C   UNL     1       7.942   0.165   3.917  1.00  0.00     0.118 A 
ATOM      2  C   UNL     1       8.488   1.329   3.392  1.00  0.00     0.047 A 
ATOM      3  C   UNL     1       7.937   1.924   2.278  1.00  0.00     0.008 A 
ATOM      4  C   UNL     1       6.835   1.396   1.643  1.00  0.00    -0.034 A 
ATOM      5  C   UNL     1       6.306   0.231   2.186  1.00  0.00     0.008 A 
ATOM      6  C   UNL     1       6.843  -0.371   3.295  1.00  0.00     0.047 A 
ENDROOT
BRANCH   1   7
ATOM      7  O   UNL     1       8.490  -0.454   5.055  1.00  0.00    -0.497 OA
ATOM      8  C   UNL     1       9.660  -1.264   4.880  1.00  0.00     0.278 C 
ENDBRANCH   1   7
BRANCH   4   9
ATOM      9  C   UNL     1       6.186   1.963   0.456  1.00  0.00     0.098 C 
BRANCH   9  10
ATOM     10  C   UNL     1       7.051   2.094  -0.727  1.00  0.00    -0.034 A 
ATOM     11  C   UNL     1       7.670   3.305  -1.032  1.00  0.00     0.006 A 
ATOM     12  C   UNL     1       7.302   1.060  -1.612  1.00  0.00     0.006 A 
ATOM     13  C   UNL     1       8.470   3.427  -2.141  1.00  0.00     0.021 A 
ATOM     14  C   UNL     1       8.106   1.185  -2.723  1.00  0.00     0.021 A 
ATOM     15  C   UNL     1       8.721   2.400  -3.019  1.00  0.00     0.041 A 
ATOM     16  Cl  UNL     1       9.740   2.595  -4.414  1.00  0.00    -0.084 Cl
ENDBRANCH   9  10
BRANCH   9  17
ATOM     17  C   UNL     1       5.465   3.218   0.715  1.00  0.00     0.052 A 
ATOM     18  C   UNL     1       5.152   3.578   2.025  1.00  0.00     0.025 A 
ATOM     19  N   UNL     1       5.072   4.086  -0.234  1.00  0.00    -0.260 NA
ATOM     20  C   UNL     1       4.488   4.736   2.352  1.00  0.00     0.003 A 
ATOM     21  C   UNL     1       4.424   5.220   0.057  1.00  0.00     0.111 A 
ATOM     22  C   UNL     1       4.107   5.591   1.343  1.00  0.00     0.020 A 
ENDBRANCH   9  17
ENDBRANCH   4   9
TORSDOF 4
ENDMDL
MODEL 4
REMARK VINA RESULT:      -2.2      3.830      5.479
REMARK SMILES COc1ccc(C(c2ccc(Cl)cc2)c2ccccn2)cc1
REMARK SMILES IDX 3 1 4 2 5 3 6 4 21 5 22 6 2 7 1 8 7 9 8 10 9 11 14 12 10 13
REMARK SMILES IDX 13 14 11 15 12 16 15 17 16 18 20 19 17 20 19 21 18 22
REMARK H PARENT
ROOT
ATOM      1  C   UNL     1       7.731  -1.079   2.229  1.00  0.00     0.118 A 
ATOM      2  C   UNL     1       8.675  -0.069   2.097  1.00  0.00     0.047 A 
ATOM      3  C   UNL     1       8.323   1.251   2.281  1.00  0.00     0.008 A 
ATOM      4  C   UNL     1       7.035   1.621   2.598  1.00  0.00    -0.034 A 
ATOM      5  C   UNL     1       6.108   0.593   2.725  1.00  0.00     0.008 A 
ATOM      6  C   UNL     1       6.444  -0.724   2.546  1.00  0.00     0.047 A 
ENDROOT
BRANCH   1   7
ATOM      7  O   UNL     1       8.074  -2.431   2.047  1.00  0.00    -0.497 OA
ATOM      8  C   UNL     1       9.395  -2.844   2.422  1.00  0.00     0.278 C 
ENDBRANCH   1   7
BRANCH   4   9
ATOM      9  C   UNL     1       6.574   2.997   2.811  1.00  0.00     0.098 C 
BRANCH   9  10
ATOM     10  C   UNL     1       5.908   3.620   1.656  1.00  0.00    -0.034 A 
ATOM     11  C   UNL     1       5.602   4.980   1.652  1.00  0.00     0.006 A 
ATOM     12  C   UNL     1       5.533   2.924   0.521  1.00  0.00     0.006 A 
ATOM     13  C   UNL     1       4.973   5.557   0.577  1.00  0.00     0.021 A 
ATOM     14  C   UNL     1       4.902   3.505  -0.557  1.00  0.00     0.021 A 
ATOM     15  C   UNL     1       4.601   4.866  -0.552  1.00  0.00     0.041 A 
ATOM     16  Cl  UNL     1       3.804   5.633  -1.893  1.00  0.00    -0.084 Cl
ENDBRANCH   9  10
BRANCH   9  17
ATOM     17  C   UNL     1       7.606   3.890   3.360  1.00  0.00     0.052 A 
ATOM     18  C   UNL     1       7.361   4.583   4.546  1.00  0.00     0.025 A 
ATOM     19  N   UNL     1       8.811   4.103   2.803  1.00  0.00    -0.260 NA
ATOM     20  C   UNL     1       8.274   5.429   5.128  1.00  0.00     0.003 A 
ATOM     21  C   UNL     1       9.718   4.922   3.349  1.00  0.00     0.111 A 
ATOM     22  C   UNL     1       9.493   5.612   4.518  1.00  0.00     0.020 A 
ENDBRANCH   9  17
ENDBRANCH   4   9
TORSDOF 4
ENDMDL
MODEL 5
REMARK VINA RESULT:      -2.2      2.639      4.632
REMARK SMILES COc1ccc(C(c2ccc(Cl)cc2)c2ccccn2)cc1
REMARK SMILES IDX 3 1 4 2 5 3 6 4 21 5 22 6 2 7 1 8 7 9 8 10 9 11 14 12 10 13
REMARK SMILES IDX 13 14 11 15 12 16 15 17 16 18 20 19 17 20 19 21 18 22
REMARK H PARENT
ROOT
ATOM      1  C   UNL     1       8.552   3.889  -1.573  1.00  0.00     0.118 A 
ATOM      2  C   UNL     1       8.596   2.501  -1.577  1.00  0.00     0.047 A 
ATOM      3  C   UNL     1       7.919   1.772  -0.623  1.00  0.00     0.008 A 
ATOM      4  C   UNL     1       7.178   2.382   0.365  1.00  0.00    -0.034 A 
ATOM      5  C   UNL     1       7.148   3.771   0.349  1.00  0.00     0.008 A 
ATOM      6  C   UNL     1       7.816   4.509  -0.595  1.00  0.00     0.047 A 
ENDROOT
BRANCH   1   7
ATOM      7  O   UNL     1       9.235   4.647  -2.540  1.00  0.00    -0.497 OA
ATOM      8  C   UNL     1       8.611   5.847  -3.016  1.00  0.00     0.278 C 
ENDBRANCH   1   7
BRANCH   4   9
ATOM      9  C   UNL     1       6.428   1.686   1.416  1.00  0.00     0.098 C 
BRANCH   9  10
ATOM     10  C   UNL     1       7.231   0.806   2.280  1.00  0.00    -0.034 A 
ATOM     11  C   UNL     1       6.729   0.341   3.495  1.00  0.00     0.006 A 
ATOM     12  C   UNL     1       8.514   0.391   1.970  1.00  0.00     0.006 A 
ATOM     13  C   UNL     1       7.484  -0.473   4.303  1.00  0.00     0.021 A 
ATOM     14  C   UNL     1       9.269  -0.427   2.782  1.00  0.00     0.021 A 
ATOM     15  C   UNL     1       8.758  -0.886   3.995  1.00  0.00     0.041 A 
ATOM     16  Cl  UNL     1       9.682  -1.917   5.046  1.00  0.00    -0.084 Cl
ENDBRANCH   9  10
BRANCH   9  17
ATOM     17  C   UNL     1       5.232   0.983   0.927  1.00  0.00     0.052 A 
ATOM     18  C   UNL     1       5.117   0.675  -0.428  1.00  0.00     0.025 A 
ATOM     19  N   UNL     1       4.204   0.591   1.700  1.00  0.00    -0.260 NA
ATOM     20  C   UNL     1       4.037   0.015  -0.963  1.00  0.00     0.003 A 
ATOM     21  C   UNL     1       3.141  -0.053   1.204  1.00  0.00     0.111 A 
ATOM     22  C   UNL     1       3.010  -0.365  -0.130  1.00  0.00     0.020 A 
ENDBRANCH   9  17
ENDBRANCH   4   9
TORSDOF 4
ENDMDL
MODEL 6
REMARK VINA RESULT:      -2.0      3.734      5.468
REMARK SMILES COc1ccc(C(c2ccc(Cl)cc2)c2ccccn2)cc1
REMARK SMILES IDX 3 1 4 2 5 3 6 4 21 5 22 6 2 7 1 8 7 9 8 10 9 11 14 12 10 13
REMARK SMILES IDX 13 14 11 15 12 16 15 17 16 18 20 19 17 20 19 21 18 22
REMARK H PARENT
ROOT
ATOM      1  C   UNL     1       7.884  -1.237   2.580  1.00  0.00     0.118 A 
ATOM      2  C   UNL     1       7.459  -0.559   1.445  1.00  0.00     0.047 A 
ATOM      3  C   UNL     1       7.025   0.747   1.526  1.00  0.00     0.008 A 
ATOM      4  C   UNL     1       6.992   1.427   2.723  1.00  0.00    -0.034 A 
ATOM      5  C   UNL     1       7.420   0.728   3.845  1.00  0.00     0.008 A 
ATOM      6  C   UNL     1       7.856  -0.571   3.779  1.00  0.00     0.047 A 
ENDROOT
BRANCH   1   7
ATOM      7  O   UNL     1       8.332  -2.568   2.513  1.00  0.00    -0.497 OA
ATOM      8  C   UNL     1       9.732  -2.795   2.302  1.00  0.00     0.278 C 
ENDBRANCH   1   7
BRANCH   4   9
ATOM      9  C   UNL     1       6.545   2.813   2.901  1.00  0.00     0.098 C 
BRANCH   9  10
ATOM     10  C   UNL     1       6.009   3.457   1.691  1.00  0.00    -0.034 A 
ATOM     11  C   UNL     1       4.845   2.986   1.084  1.00  0.00     0.006 A 
ATOM     12  C   UNL     1       6.603   4.542   1.072  1.00  0.00     0.006 A 
ATOM     13  C   UNL     1       4.351   3.583  -0.049  1.00  0.00     0.021 A 
ATOM     14  C   UNL     1       6.105   5.140  -0.064  1.00  0.00     0.021 A 
ATOM     15  C   UNL     1       4.941   4.662  -0.663  1.00  0.00     0.041 A 
ATOM     16  Cl  UNL     1       4.284   5.390  -2.098  1.00  0.00    -0.084 Cl
ENDBRANCH   9  10
BRANCH   9  17
ATOM     17  C   UNL     1       7.539   3.678   3.553  1.00  0.00     0.052 A 
ATOM     18  C   UNL     1       7.115   4.766   4.316  1.00  0.00     0.025 A 
ATOM     19  N   UNL     1       8.871   3.504   3.483  1.00  0.00    -0.260 NA
ATOM     20  C   UNL     1       7.978   5.617   4.962  1.00  0.00     0.003 A 
ATOM     21  C   UNL     1       9.733   4.318   4.104  1.00  0.00     0.111 A 
ATOM     22  C   UNL     1       9.332   5.396   4.859  1.00  0.00     0.020 A 
ENDBRANCH   9  17
ENDBRANCH   4   9
TORSDOF 4
ENDMDL
MODEL 7
REMARK VINA RESULT:      -1.4      3.811      6.094
REMARK SMILES COc1ccc(C(c2ccc(Cl)cc2)c2ccccn2)cc1
REMARK SMILES IDX 3 1 4 2 5 3 6 4 21 5 22 6 2 7 1 8 7 9 8 10 9 11 14 12 10 13
REMARK SMILES IDX 13 14 11 15 12 16 15 17 16 18 20 19 17 20 19 21 18 22
REMARK H PARENT
ROOT
ATOM      1  C   UNL     1       8.034  -1.214   3.481  1.00  0.00     0.118 A 
ATOM      2  C   UNL     1       8.926  -0.688   2.555  1.00  0.00     0.047 A 
ATOM      3  C   UNL     1       8.598   0.431   1.820  1.00  0.00     0.008 A 
ATOM      4  C   UNL     1       7.387   1.069   1.970  1.00  0.00    -0.034 A 
ATOM      5  C   UNL     1       6.511   0.524   2.902  1.00  0.00     0.008 A 
ATOM      6  C   UNL     1       6.824  -0.588   3.641  1.00  0.00     0.047 A 
ENDROOT
BRANCH   1   7
ATOM      7  O   UNL     1       8.354  -2.353   4.240  1.00  0.00    -0.497 OA
ATOM      8  C   UNL     1       9.739  -2.624   4.495  1.00  0.00     0.278 C 
ENDBRANCH   1   7
BRANCH   4   9
ATOM      9  C   UNL     1       6.957   2.261   1.232  1.00  0.00     0.098 C 
BRANCH   9  10
ATOM     10  C   UNL     1       7.626   2.470  -0.062  1.00  0.00    -0.034 A 
ATOM     11  C   UNL     1       7.769   1.424  -0.973  1.00  0.00     0.006 A 
ATOM     12  C   UNL     1       8.159   3.682  -0.463  1.00  0.00     0.006 A 
ATOM     13  C   UNL     1       8.400   1.620  -2.176  1.00  0.00     0.021 A 
ATOM     14  C   UNL     1       8.791   3.876  -1.671  1.00  0.00     0.021 A 
ATOM     15  C   UNL     1       8.929   2.824  -2.575  1.00  0.00     0.041 A 
ATOM     16  Cl  UNL     1       9.723   3.031  -4.107  1.00  0.00    -0.084 Cl
ENDBRANCH   9  10
BRANCH   9  17
ATOM     17  C   UNL     1       6.977   3.494   2.032  1.00  0.00     0.052 A 
ATOM     18  C   UNL     1       8.196   4.035   2.440  1.00  0.00     0.025 A 
ATOM     19  N   UNL     1       5.883   4.177   2.415  1.00  0.00    -0.260 NA
ATOM     20  C   UNL     1       8.301   5.186   3.183  1.00  0.00     0.003 A 
ATOM     21  C   UNL     1       5.957   5.300   3.139  1.00  0.00     0.111 A 
ATOM     22  C   UNL     1       7.151   5.847   3.550  1.00  0.00     0.020 A 
ENDBRANCH   9  17
ENDBRANCH   4   9
TORSDOF 4
ENDMDL
MODEL 8
REMARK VINA RESULT:      -1.1      3.438      5.918
REMARK SMILES COc1ccc(C(c2ccc(Cl)cc2)c2ccccn2)cc1
REMARK SMILES IDX 3 1 4 2 5 3 6 4 21 5 22 6 2 7 1 8 7 9 8 10 9 11 14 12 10 13
REMARK SMILES IDX 13 14 11 15 12 16 15 17 16 18 20 19 17 20 19 21 18 22
REMARK H PARENT
ROOT
ATOM      1  C   UNL     1       7.582   4.308   3.308  1.00  0.00     0.118 A 
ATOM      2  C   UNL     1       6.494   4.239   2.449  1.00  0.00     0.047 A 
ATOM      3  C   UNL     1       6.369   3.200   1.552  1.00  0.00     0.008 A 
ATOM      4  C   UNL     1       7.309   2.197   1.470  1.00  0.00    -0.034 A 
ATOM      5  C   UNL     1       8.390   2.287   2.338  1.00  0.00     0.008 A 
ATOM      6  C   UNL     1       8.526   3.315   3.237  1.00  0.00     0.047 A 
ENDROOT
BRANCH   1   7
ATOM      7  O   UNL     1       7.723   5.360   4.230  1.00  0.00    -0.497 OA
ATOM      8  C   UNL     1       6.696   5.530   5.217  1.00  0.00     0.278 C 
ENDBRANCH   1   7
BRANCH   4   9
ATOM      9  C   UNL     1       7.256   1.057   0.548  1.00  0.00     0.098 C 
BRANCH   9  10
ATOM     10  C   UNL     1       7.862   1.291  -0.773  1.00  0.00    -0.034 A 
ATOM     11  C   UNL     1       8.344   2.550  -1.127  1.00  0.00     0.006 A 
ATOM     12  C   UNL     1       7.987   0.314  -1.743  1.00  0.00     0.006 A 
ATOM     13  C   UNL     1       8.901   2.769  -2.362  1.00  0.00     0.021 A 
ATOM     14  C   UNL     1       8.546   0.535  -2.982  1.00  0.00     0.021 A 
ATOM     15  C   UNL     1       9.026   1.797  -3.327  1.00  0.00     0.041 A 
ATOM     16  Cl  UNL     1       9.737   2.114  -4.881  1.00  0.00    -0.084 Cl
ENDBRANCH   9  10
BRANCH   9  17
ATOM     17  C   UNL     1       5.917   0.467   0.409  1.00  0.00     0.052 A 
ATOM     18  C   UNL     1       4.791   1.291   0.442  1.00  0.00     0.025 A 
ATOM     19  N   UNL     1       5.669  -0.844   0.239  1.00  0.00    -0.260 NA
ATOM     20  C   UNL     1       3.507   0.820   0.312  1.00  0.00     0.003 A 
ATOM     21  C   UNL     1       4.429  -1.328   0.109  1.00  0.00     0.111 A 
ATOM     22  C   UNL     1       3.308  -0.530   0.140  1.00  0.00     0.020 A 
ENDBRANCH   9  17
ENDBRANCH   4   9
TORSDOF 4
ENDMDL
MODEL 9
REMARK VINA RESULT:      -0.8      3.292      5.697
REMARK SMILES COc1ccc(C(c2ccc(Cl)cc2)c2ccccn2)cc1
REMARK SMILES IDX 3 1 4 2 5 3 6 4 21 5 22 6 2 7 1 8 7 9 8 10 9 11 14 12 10 13
REMARK SMILES IDX 13 14 11 15 12 16 15 17 16 18 20 19 17 20 19 21 18 22
REMARK H PARENT
ROOT
ATOM      1  C   UNL     1       4.093  -0.111   0.177  1.00  0.00     0.118 A 
ATOM      2  C   UNL     1       3.655   1.206   0.126  1.00  0.00     0.047 A 
ATOM      3  C   UNL     1       4.482   2.238   0.515  1.00  0.00     0.008 A 
ATOM      4  C   UNL     1       5.763   2.011   0.965  1.00  0.00    -0.034 A 
ATOM      5  C   UNL     1       6.179   0.686   1.008  1.00  0.00     0.008 A 
ATOM      6  C   UNL     1       5.368  -0.351   0.623  1.00  0.00     0.047 A 
ENDROOT
BRANCH   1   7
ATOM      7  O   UNL     1       3.263  -1.175  -0.218  1.00  0.00    -0.497 OA
ATOM      8  C   UNL     1       3.888  -2.360  -0.731  1.00  0.00     0.278 C 
ENDBRANCH   1   7
BRANCH   4   9
ATOM      9  C   UNL     1       6.708   3.046   1.397  1.00  0.00     0.098 C 
BRANCH   9  10
ATOM     10  C   UNL     1       7.452   3.707   0.312  1.00  0.00    -0.034 A 
ATOM     11  C   UNL     1       7.511   5.097   0.227  1.00  0.00     0.006 A 
ATOM     12  C   UNL     1       8.121   3.022  -0.686  1.00  0.00     0.006 A 
ATOM     13  C   UNL     1       8.199   5.711  -0.790  1.00  0.00     0.021 A 
ATOM     14  C   UNL     1       8.811   3.640  -1.705  1.00  0.00     0.021 A 
ATOM     15  C   UNL     1       8.865   5.031  -1.782  1.00  0.00     0.041 A 
ATOM     16  Cl  UNL     1       9.724   5.845  -3.055  1.00  0.00    -0.084 Cl
ENDBRANCH   9  10
BRANCH   9  17
ATOM     17  C   UNL     1       7.622   2.610   2.463  1.00  0.00     0.052 A 
ATOM     18  C   UNL     1       7.529   3.182   3.732  1.00  0.00     0.025 A 
ATOM     19  N   UNL     1       8.570   1.667   2.321  1.00  0.00    -0.260 NA
ATOM     20  C   UNL     1       8.339   2.825   4.782  1.00  0.00     0.003 A 
ATOM     21  C   UNL     1       9.372   1.301   3.328  1.00  0.00     0.111 A 
ATOM     22  C   UNL     1       9.295   1.855   4.585  1.00  0.00     0.020 A 
ENDBRANCH   9  17
ENDBRANCH   4   9
TORSDOF 4
ENDMDL
