MODEL 1
REMARK VINA RESULT:      -5.2      0.000      0.000
REMARK SMILES O=Cc1cc(C=O)c2c(O)ccc(O)c2c1O
REMARK SMILES IDX 3 1 4 2 5 3 8 4 9 5 11 6 12 7 13 8 15 9 16 10 2 11 1 12
REMARK SMILES IDX 17 13 6 15 7 16 14 17 10 19
REMARK H PARENT 17 14 14 18 10 20
ROOT
ATOM      1  C   UNL     1       7.296   0.317   2.874  1.00  0.00     0.058 A 
ATOM      2  C   UNL     1       7.160   1.675   2.989  1.00  0.00     0.027 A 
ATOM      3  C   UNL     1       6.397   2.447   2.122  1.00  0.00     0.027 A 
ATOM      4  C   UNL     1       5.766   1.755   1.110  1.00  0.00     0.042 A 
ATOM      5  C   UNL     1       4.988   2.430   0.201  1.00  0.00     0.124 A 
ATOM      6  C   UNL     1       4.376   1.697  -0.792  1.00  0.00     0.050 A 
ATOM      7  C   UNL     1       4.489   0.338  -0.937  1.00  0.00     0.051 A 
ATOM      8  C   UNL     1       5.270  -0.336  -0.025  1.00  0.00     0.127 A 
ATOM      9  C   UNL     1       5.900   0.366   0.987  1.00  0.00     0.070 A 
ATOM     10  C   UNL     1       6.663  -0.374   1.862  1.00  0.00     0.137 A 
ENDROOT
BRANCH   1  11
ATOM     11  C   UNL     1       8.109  -0.436   3.814  1.00  0.00     0.263 C 
ATOM     12  O   UNL     1       9.118  -1.064   3.362  1.00  0.00    -0.298 OA
ENDBRANCH   1  11
BRANCH  10  13
ATOM     13  O   UNL     1       6.784  -1.733   1.728  1.00  0.00    -0.506 OA
ATOM     14  H   UNL     1       6.588  -2.305   2.528  1.00  0.00     0.293 HD
ENDBRANCH  10  13
BRANCH   3  15
ATOM     15  C   UNL     1       6.319   3.869   2.329  1.00  0.00     0.260 C 
ATOM     16  O   UNL     1       5.498   4.278   3.231  1.00  0.00    -0.298 OA
ENDBRANCH   3  15
BRANCH   8  17
ATOM     17  O   UNL     1       5.398  -1.718  -0.153  1.00  0.00    -0.507 OA
ATOM     18  H   UNL     1       6.314  -2.112   0.108  1.00  0.00     0.293 HD
ENDBRANCH   8  17
BRANCH   5  19
ATOM     19  O   UNL     1       4.785   3.776   0.222  1.00  0.00    -0.507 OA
ATOM     20  H   UNL     1       5.399   4.478  -0.160  1.00  0.00     0.293 HD
ENDBRANCH   5  19
TORSDOF 5
ENDMDL
MODEL 2
REMARK VINA RESULT:      -5.0      1.180      3.873
REMARK SMILES O=Cc1cc(C=O)c2c(O)ccc(O)c2c1O
REMARK SMILES IDX 3 1 4 2 5 3 8 4 9 5 11 6 12 7 13 8 15 9 16 10 2 11 1 12
REMARK SMILES IDX 17 13 6 15 7 16 14 17 10 19
REMARK H PARENT 17 14 14 18 10 20
ROOT
ATOM      1  C   UNL     1       5.126   1.206   0.192  1.00  0.00     0.058 A 
ATOM      2  C   UNL     1       5.258   2.459   0.730  1.00  0.00     0.027 A 
ATOM      3  C   UNL     1       6.031   2.736   1.851  1.00  0.00     0.027 A 
ATOM      4  C   UNL     1       6.676   1.653   2.409  1.00  0.00     0.042 A 
ATOM      5  C   UNL     1       7.465   1.825   3.521  1.00  0.00     0.124 A 
ATOM      6  C   UNL     1       8.090   0.715   4.044  1.00  0.00     0.050 A 
ATOM      7  C   UNL     1       7.981  -0.553   3.533  1.00  0.00     0.051 A 
ATOM      8  C   UNL     1       7.189  -0.722   2.419  1.00  0.00     0.127 A 
ATOM      9  C   UNL     1       6.546   0.369   1.864  1.00  0.00     0.070 A 
ATOM     10  C   UNL     1       5.772   0.124   0.752  1.00  0.00     0.137 A 
ENDROOT
BRANCH   1  11
ATOM     11  C   UNL     1       4.302   0.979  -0.983  1.00  0.00     0.263 C 
ATOM     12  O   UNL     1       3.288   0.221  -0.865  1.00  0.00    -0.298 OA
ENDBRANCH   1  11
BRANCH  10  13
ATOM     13  O   UNL     1       5.655  -1.139   0.230  1.00  0.00    -0.506 OA
ATOM     14  H   UNL     1       4.732  -1.505   0.086  1.00  0.00     0.293 HD
ENDBRANCH  10  13
BRANCH   3  15
ATOM     15  C   UNL     1       6.105   4.088   2.338  1.00  0.00     0.260 C 
ATOM     16  O   UNL     1       5.196   4.453   3.172  1.00  0.00    -0.298 OA
ENDBRANCH   3  15
BRANCH   8  17
ATOM     17  O   UNL     1       7.064  -2.002   1.881  1.00  0.00    -0.507 OA
ATOM     18  H   UNL     1       7.938  -2.543   1.794  1.00  0.00     0.293 HD
ENDBRANCH   8  17
BRANCH   5  19
ATOM     19  O   UNL     1       7.666   3.023   4.135  1.00  0.00    -0.507 OA
ATOM     20  H   UNL     1       8.558   3.447   4.338  1.00  0.00     0.293 HD
ENDBRANCH   5  19
TORSDOF 5
ENDMDL
MODEL 3
REMARK VINA RESULT:      -4.9      1.439      4.086
REMARK SMILES O=Cc1cc(C=O)c2c(O)ccc(O)c2c1O
REMARK SMILES IDX 3 1 4 2 5 3 8 4 9 5 11 6 12 7 13 8 15 9 16 10 2 11 1 12
REMARK SMILES IDX 17 13 6 15 7 16 14 17 10 19
REMARK H PARENT 17 14 14 18 10 20
ROOT
ATOM      1  C   UNL     1       5.181   2.967  -0.477  1.00  0.00     0.058 A 
ATOM      2  C   UNL     1       5.608   3.733   0.575  1.00  0.00     0.027 A 
ATOM      3  C   UNL     1       6.162   3.206   1.735  1.00  0.00     0.027 A 
ATOM      4  C   UNL     1       6.261   1.831   1.774  1.00  0.00     0.042 A 
ATOM      5  C   UNL     1       6.795   1.214   2.879  1.00  0.00     0.124 A 
ATOM      6  C   UNL     1       6.875  -0.161   2.872  1.00  0.00     0.050 A 
ATOM      7  C   UNL     1       6.459  -0.960   1.839  1.00  0.00     0.051 A 
ATOM      8  C   UNL     1       5.924  -0.338   0.732  1.00  0.00     0.127 A 
ATOM      9  C   UNL     1       5.827   1.041   0.701  1.00  0.00     0.070 A 
ATOM     10  C   UNL     1       5.282   1.592  -0.437  1.00  0.00     0.137 A 
ENDROOT
BRANCH   1  11
ATOM     11  C   UNL     1       4.611   3.577  -1.665  1.00  0.00     0.263 C 
ATOM     12  O   UNL     1       4.181   4.771  -1.577  1.00  0.00    -0.298 OA
ENDBRANCH   1  11
BRANCH  10  13
ATOM     13  O   UNL     1       4.862   0.804  -1.478  1.00  0.00    -0.506 OA
ATOM     14  H   UNL     1       4.439  -0.079  -1.259  1.00  0.00     0.293 HD
ENDBRANCH  10  13
BRANCH   3  15
ATOM     15  C   UNL     1       6.580   4.098   2.784  1.00  0.00     0.260 C 
ATOM     16  O   UNL     1       5.682   4.450   3.636  1.00  0.00    -0.298 OA
ENDBRANCH   3  15
BRANCH   8  17
ATOM     17  O   UNL     1       5.494  -1.131  -0.331  1.00  0.00    -0.507 OA
ATOM     18  H   UNL     1       5.493  -2.148  -0.164  1.00  0.00     0.293 HD
ENDBRANCH   8  17
BRANCH   5  19
ATOM     19  O   UNL     1       7.249   1.878   3.978  1.00  0.00    -0.507 OA
ATOM     20  H   UNL     1       6.787   1.939   4.871  1.00  0.00     0.293 HD
ENDBRANCH   5  19
TORSDOF 5
ENDMDL
MODEL 4
REMARK VINA RESULT:      -4.9      2.482      3.732
REMARK SMILES O=Cc1cc(C=O)c2c(O)ccc(O)c2c1O
REMARK SMILES IDX 3 1 4 2 5 3 8 4 9 5 11 6 12 7 13 8 15 9 16 10 2 11 1 12
REMARK SMILES IDX 17 13 6 15 7 16 14 17 10 19
REMARK H PARENT 17 14 14 18 10 20
ROOT
ATOM      1  C   UNL     1       4.618   1.181  -0.024  1.00  0.00     0.058 A 
ATOM      2  C   UNL     1       4.505   2.353   0.675  1.00  0.00     0.027 A 
ATOM      3  C   UNL     1       5.586   3.166   0.993  1.00  0.00     0.027 A 
ATOM      4  C   UNL     1       6.814   2.718   0.554  1.00  0.00     0.042 A 
ATOM      5  C   UNL     1       7.945   3.453   0.818  1.00  0.00     0.124 A 
ATOM      6  C   UNL     1       9.149   2.967   0.360  1.00  0.00     0.050 A 
ATOM      7  C   UNL     1       9.301   1.799  -0.343  1.00  0.00     0.051 A 
ATOM      8  C   UNL     1       8.166   1.065  -0.606  1.00  0.00     0.127 A 
ATOM      9  C   UNL     1       6.937   1.521  -0.163  1.00  0.00     0.070 A 
ATOM     10  C   UNL     1       5.847   0.735  -0.462  1.00  0.00     0.137 A 
ENDROOT
BRANCH   1  11
ATOM     11  C   UNL     1       3.449   0.373  -0.325  1.00  0.00     0.263 C 
ATOM     12  O   UNL     1       3.402  -0.809   0.143  1.00  0.00    -0.298 OA
ENDBRANCH   1  11
BRANCH  10  13
ATOM     13  O   UNL     1       5.985  -0.435  -1.165  1.00  0.00    -0.506 OA
ATOM     14  H   UNL     1       5.904  -0.397  -2.164  1.00  0.00     0.293 HD
ENDBRANCH  10  13
BRANCH   3  15
ATOM     15  C   UNL     1       5.361   4.379   1.733  1.00  0.00     0.260 C 
ATOM     16  O   UNL     1       5.410   4.292   3.016  1.00  0.00    -0.298 OA
ENDBRANCH   3  15
BRANCH   8  17
ATOM     17  O   UNL     1       8.295  -0.125  -1.320  1.00  0.00    -0.507 OA
ATOM     18  H   UNL     1       7.803  -0.942  -0.929  1.00  0.00     0.293 HD
ENDBRANCH   8  17
BRANCH   5  19
ATOM     19  O   UNL     1       7.947   4.629   1.504  1.00  0.00    -0.507 OA
ATOM     20  H   UNL     1       8.699   4.988   2.070  1.00  0.00     0.293 HD
ENDBRANCH   5  19
TORSDOF 5
ENDMDL
MODEL 5
REMARK VINA RESULT:      -4.9      1.717      3.707
REMARK SMILES O=Cc1cc(C=O)c2c(O)ccc(O)c2c1O
REMARK SMILES IDX 3 1 4 2 5 3 8 4 9 5 11 6 12 7 13 8 15 9 16 10 2 11 1 12
REMARK SMILES IDX 17 13 6 15 7 16 14 17 10 19
REMARK H PARENT 17 14 14 18 10 20
ROOT
ATOM      1  C   UNL     1       6.687   0.755   2.694  1.00  0.00     0.058 A 
ATOM      2  C   UNL     1       6.052  -0.107   1.839  1.00  0.00     0.027 A 
ATOM      3  C   UNL     1       5.421   0.298   0.668  1.00  0.00     0.027 A 
ATOM      4  C   UNL     1       5.471   1.650   0.405  1.00  0.00     0.042 A 
ATOM      5  C   UNL     1       4.877   2.148  -0.730  1.00  0.00     0.124 A 
ATOM      6  C   UNL     1       4.952   3.505  -0.952  1.00  0.00     0.050 A 
ATOM      7  C   UNL     1       5.579   4.397  -0.120  1.00  0.00     0.051 A 
ATOM      8  C   UNL     1       6.173   3.894   1.016  1.00  0.00     0.127 A 
ATOM      9  C   UNL     1       6.119   2.536   1.273  1.00  0.00     0.070 A 
ATOM     10  C   UNL     1       6.736   2.107   2.428  1.00  0.00     0.137 A 
ENDROOT
BRANCH   1  11
ATOM     11  C   UNL     1       7.329   0.271   3.904  1.00  0.00     0.263 C 
ATOM     12  O   UNL     1       6.807   0.580   5.022  1.00  0.00    -0.298 OA
ENDBRANCH   1  11
BRANCH  10  13
ATOM     13  O   UNL     1       7.366   2.988   3.268  1.00  0.00    -0.506 OA
ATOM     14  H   UNL     1       7.363   3.960   3.020  1.00  0.00     0.293 HD
ENDBRANCH  10  13
BRANCH   3  15
ATOM     15  C   UNL     1       4.781  -0.687  -0.163  1.00  0.00     0.260 C 
ATOM     16  O   UNL     1       3.530  -0.899   0.051  1.00  0.00    -0.298 OA
ENDBRANCH   3  15
BRANCH   8  17
ATOM     17  O   UNL     1       6.817   4.782   1.876  1.00  0.00    -0.507 OA
ATOM     18  H   UNL     1       6.315   5.012   2.746  1.00  0.00     0.293 HD
ENDBRANCH   8  17
BRANCH   5  19
ATOM     19  O   UNL     1       4.220   1.383  -1.645  1.00  0.00    -0.507 OA
ATOM     20  H   UNL     1       3.784   1.711  -2.493  1.00  0.00     0.293 HD
ENDBRANCH   5  19
TORSDOF 5
ENDMDL
MODEL 6
REMARK VINA RESULT:      -4.9      3.001      4.096
REMARK SMILES O=Cc1cc(C=O)c2c(O)ccc(O)c2c1O
REMARK SMILES IDX 3 1 4 2 5 3 8 4 9 5 11 6 12 7 13 8 15 9 16 10 2 11 1 12
REMARK SMILES IDX 17 13 6 15 7 16 14 17 10 19
REMARK H PARENT 17 14 14 18 10 20
ROOT
ATOM      1  C   UNL     1       4.493   1.211  -0.503  1.00  0.00     0.058 A 
ATOM      2  C   UNL     1       4.252   2.557  -0.431  1.00  0.00     0.027 A 
ATOM      3  C   UNL     1       5.243   3.523  -0.551  1.00  0.00     0.027 A 
ATOM      4  C   UNL     1       6.520   3.041  -0.753  1.00  0.00     0.042 A 
ATOM      5  C   UNL     1       7.569   3.918  -0.884  1.00  0.00     0.124 A 
ATOM      6  C   UNL     1       8.826   3.392  -1.084  1.00  0.00     0.050 A 
ATOM      7  C   UNL     1       9.105   2.051  -1.163  1.00  0.00     0.051 A 
ATOM      8  C   UNL     1       8.050   1.175  -1.030  1.00  0.00     0.127 A 
ATOM      9  C   UNL     1       6.773   1.666  -0.829  1.00  0.00     0.070 A 
ATOM     10  C   UNL     1       5.770   0.731  -0.706  1.00  0.00     0.137 A 
ENDROOT
BRANCH   1  11
ATOM     11  C   UNL     1       3.413   0.249  -0.370  1.00  0.00     0.263 C 
ATOM     12  O   UNL     1       3.438  -0.545   0.623  1.00  0.00    -0.298 OA
ENDBRANCH   1  11
BRANCH  10  13
ATOM     13  O   UNL     1       6.035  -0.612  -0.782  1.00  0.00    -0.506 OA
ATOM     14  H   UNL     1       5.414  -1.243  -0.309  1.00  0.00     0.293 HD
ENDBRANCH  10  13
BRANCH   3  15
ATOM     15  C   UNL     1       4.886   4.915  -0.460  1.00  0.00     0.260 C 
ATOM     16  O   UNL     1       4.404   5.458  -1.521  1.00  0.00    -0.298 OA
ENDBRANCH   3  15
BRANCH   8  17
ATOM     17  O   UNL     1       8.310  -0.192  -1.107  1.00  0.00    -0.507 OA
ATOM     18  H   UNL     1       8.145  -0.732  -0.245  1.00  0.00     0.293 HD
ENDBRANCH   8  17
BRANCH   5  19
ATOM     19  O   UNL     1       7.443   5.273  -0.828  1.00  0.00    -0.507 OA
ATOM     20  H   UNL     1       6.710   5.785  -0.362  1.00  0.00     0.293 HD
ENDBRANCH   5  19
TORSDOF 5
ENDMDL
MODEL 7
REMARK VINA RESULT:      -4.9      2.410      3.696
REMARK SMILES O=Cc1cc(C=O)c2c(O)ccc(O)c2c1O
REMARK SMILES IDX 3 1 4 2 5 3 8 4 9 5 11 6 12 7 13 8 15 9 16 10 2 11 1 12
REMARK SMILES IDX 17 13 6 15 7 16 14 17 10 19
REMARK H PARENT 17 14 14 18 10 20
ROOT
ATOM      1  C   UNL     1       8.120   2.266   0.120  1.00  0.00     0.058 A 
ATOM      2  C   UNL     1       8.223   1.604   1.314  1.00  0.00     0.027 A 
ATOM      3  C   UNL     1       7.194   0.849   1.865  1.00  0.00     0.027 A 
ATOM      4  C   UNL     1       6.032   0.800   1.125  1.00  0.00     0.042 A 
ATOM      5  C   UNL     1       4.958   0.078   1.586  1.00  0.00     0.124 A 
ATOM      6  C   UNL     1       3.818   0.057   0.813  1.00  0.00     0.050 A 
ATOM      7  C   UNL     1       3.679   0.707  -0.387  1.00  0.00     0.051 A 
ATOM      8  C   UNL     1       4.758   1.430  -0.845  1.00  0.00     0.127 A 
ATOM      9  C   UNL     1       5.921   1.474  -0.097  1.00  0.00     0.070 A 
ATOM     10  C   UNL     1       6.957   2.216  -0.619  1.00  0.00     0.137 A 
ENDROOT
BRANCH   1  11
ATOM     11  C   UNL     1       9.231   3.041  -0.404  1.00  0.00     0.263 C 
ATOM     12  O   UNL     1       9.715   2.706  -1.532  1.00  0.00    -0.298 OA
ENDBRANCH   1  11
BRANCH  10  13
ATOM     13  O   UNL     1       6.831   2.870  -1.817  1.00  0.00    -0.506 OA
ATOM     14  H   UNL     1       6.611   3.849  -1.799  1.00  0.00     0.293 HD
ENDBRANCH  10  13
BRANCH   3  15
ATOM     15  C   UNL     1       7.403   0.191   3.128  1.00  0.00     0.260 C 
ATOM     16  O   UNL     1       7.090   0.854   4.185  1.00  0.00    -0.298 OA
ENDBRANCH   3  15
BRANCH   8  17
ATOM     17  O   UNL     1       4.640   2.098  -2.063  1.00  0.00    -0.507 OA
ATOM     18  H   UNL     1       4.812   1.532  -2.907  1.00  0.00     0.293 HD
ENDBRANCH   8  17
BRANCH   5  19
ATOM     19  O   UNL     1       4.951  -0.617   2.757  1.00  0.00    -0.507 OA
ATOM     20  H   UNL     1       5.576  -1.366   3.010  1.00  0.00     0.293 HD
ENDBRANCH   5  19
TORSDOF 5
ENDMDL
MODEL 8
REMARK VINA RESULT:      -4.8      1.478      4.805
REMARK SMILES O=Cc1cc(C=O)c2c(O)ccc(O)c2c1O
REMARK SMILES IDX 3 1 4 2 5 3 8 4 9 5 11 6 12 7 13 8 15 9 16 10 2 11 1 12
REMARK SMILES IDX 17 13 6 15 7 16 14 17 10 19
REMARK H PARENT 17 14 14 18 10 20
ROOT
ATOM      1  C   UNL     1       5.298   3.644   1.249  1.00  0.00     0.058 A 
ATOM      2  C   UNL     1       4.786   2.914   0.210  1.00  0.00     0.027 A 
ATOM      3  C   UNL     1       4.967   1.543   0.070  1.00  0.00     0.027 A 
ATOM      4  C   UNL     1       5.711   0.939   1.061  1.00  0.00     0.042 A 
ATOM      5  C   UNL     1       5.945  -0.414   1.012  1.00  0.00     0.124 A 
ATOM      6  C   UNL     1       6.693  -0.974   2.024  1.00  0.00     0.050 A 
ATOM      7  C   UNL     1       7.221  -0.276   3.080  1.00  0.00     0.051 A 
ATOM      8  C   UNL     1       6.984   1.080   3.126  1.00  0.00     0.127 A 
ATOM      9  C   UNL     1       6.237   1.679   2.128  1.00  0.00     0.070 A 
ATOM     10  C   UNL     1       6.041   3.037   2.240  1.00  0.00     0.137 A 
ENDROOT
BRANCH   1  11
ATOM     11  C   UNL     1       5.074   5.076   1.341  1.00  0.00     0.263 C 
ATOM     12  O   UNL     1       4.405   5.515   2.329  1.00  0.00    -0.298 OA
ENDBRANCH   1  11
BRANCH  10  13
ATOM     13  O   UNL     1       6.563   3.747   3.291  1.00  0.00    -0.506 OA
ATOM     14  H   UNL     1       7.034   4.610   3.089  1.00  0.00     0.293 HD
ENDBRANCH  10  13
BRANCH   3  15
ATOM     15  C   UNL     1       4.387   0.868  -1.061  1.00  0.00     0.260 C 
ATOM     16  O   UNL     1       3.195   0.407  -0.911  1.00  0.00    -0.298 OA
ENDBRANCH   3  15
BRANCH   8  17
ATOM     17  O   UNL     1       7.510   1.810   4.190  1.00  0.00    -0.507 OA
ATOM     18  H   UNL     1       8.143   2.584   3.938  1.00  0.00     0.293 HD
ENDBRANCH   8  17
BRANCH   5  19
ATOM     19  O   UNL     1       5.485  -1.233   0.026  1.00  0.00    -0.507 OA
ATOM     20  H   UNL     1       4.833  -1.993   0.139  1.00  0.00     0.293 HD
ENDBRANCH   5  19
TORSDOF 5
ENDMDL
MODEL 9
REMARK VINA RESULT:      -4.8      1.866      2.627
REMARK SMILES O=Cc1cc(C=O)c2c(O)ccc(O)c2c1O
REMARK SMILES IDX 3 1 4 2 5 3 8 4 9 5 11 6 12 7 13 8 15 9 16 10 2 11 1 12
REMARK SMILES IDX 17 13 6 15 7 16 14 17 10 19
REMARK H PARENT 17 14 14 18 10 20
ROOT
ATOM      1  C   UNL     1       7.179   2.831   2.345  1.00  0.00     0.058 A 
ATOM      2  C   UNL     1       7.162   3.715   1.298  1.00  0.00     0.027 A 
ATOM      3  C   UNL     1       6.395   3.536   0.153  1.00  0.00     0.027 A 
ATOM      4  C   UNL     1       5.630   2.390   0.125  1.00  0.00     0.042 A 
ATOM      5  C   UNL     1       4.837   2.123  -0.964  1.00  0.00     0.124 A 
ATOM      6  C   UNL     1       4.089   0.967  -0.948  1.00  0.00     0.050 A 
ATOM      7  C   UNL     1       4.080   0.060   0.080  1.00  0.00     0.051 A 
ATOM      8  C   UNL     1       4.876   0.330   1.171  1.00  0.00     0.127 A 
ATOM      9  C   UNL     1       5.641   1.482   1.192  1.00  0.00     0.070 A 
ATOM     10  C   UNL     1       6.412   1.686   2.315  1.00  0.00     0.137 A 
ENDROOT
BRANCH   1  11
ATOM     11  C   UNL     1       8.003   3.074   3.516  1.00  0.00     0.263 C 
ATOM     12  O   UNL     1       7.420   3.219   4.637  1.00  0.00    -0.298 OA
ENDBRANCH   1  11
BRANCH  10  13
ATOM     13  O   UNL     1       6.412   0.787   3.350  1.00  0.00    -0.506 OA
ATOM     14  H   UNL     1       6.169  -0.165   3.148  1.00  0.00     0.293 HD
ENDBRANCH  10  13
BRANCH   3  15
ATOM     15  C   UNL     1       6.449   4.525  -0.891  1.00  0.00     0.260 C 
ATOM     16  O   UNL     1       5.668   5.540  -0.767  1.00  0.00    -0.298 OA
ENDBRANCH   3  15
BRANCH   8  17
ATOM     17  O   UNL     1       4.882  -0.577   2.229  1.00  0.00    -0.507 OA
ATOM     18  H   UNL     1       3.973  -1.002   2.465  1.00  0.00     0.293 HD
ENDBRANCH   8  17
BRANCH   5  19
ATOM     19  O   UNL     1       4.745   2.931  -2.057  1.00  0.00    -0.507 OA
ATOM     20  H   UNL     1       3.931   3.059  -2.637  1.00  0.00     0.293 HD
ENDBRANCH   5  19
TORSDOF 5
ENDMDL
