MODEL 1
REMARK VINA RESULT:      -5.5      0.000      0.000
REMARK SMILES O=C1c2cccn2C(C2CCCCC2)CN1Cc1ccccc1
REMARK SMILES IDX 1 1 2 2 3 3 4 4 5 5 6 6 7 7 8 8 15 9 16 10 17 11 18 12 19 13
REMARK SMILES IDX 23 14 20 15 22 16 21 17 9 18 10 19 14 20 11 21 13 22 12 23
REMARK H PARENT
ROOT
ATOM      1  O   UNL     1       5.093  -0.392   2.006  1.00  0.00    -0.267 OA
ATOM      2  C   UNL     1       6.103  -0.055   1.348  1.00  0.00     0.270 C 
ATOM      3  C   UNL     1       7.417  -0.290   1.890  1.00  0.00     0.107 A 
ATOM      4  C   UNL     1       7.787  -0.869   3.108  1.00  0.00     0.033 A 
ATOM      5  C   UNL     1       9.162  -0.837   3.099  1.00  0.00     0.020 A 
ATOM      6  C   UNL     1       9.601  -0.267   1.933  1.00  0.00     0.087 A 
ATOM      7  N   UNL     1       8.512   0.064   1.200  1.00  0.00    -0.338 N 
ATOM      8  C   UNL     1       8.481   0.691  -0.101  1.00  0.00     0.110 C 
ATOM      9  C   UNL     1       7.165   0.688  -0.760  1.00  0.00     0.146 C 
ATOM     10  N   UNL     1       6.009   0.559   0.068  1.00  0.00    -0.331 N 
ENDROOT
BRANCH  10  11
ATOM     11  C   UNL     1       4.739   1.062  -0.411  1.00  0.00     0.155 C 
BRANCH  11  12
ATOM     12  C   UNL     1       4.606   2.522  -0.379  1.00  0.00    -0.029 A 
ATOM     13  C   UNL     1       4.595   3.212  -1.584  1.00  0.00     0.005 A 
ATOM     14  C   UNL     1       4.489   3.276   0.771  1.00  0.00     0.005 A 
ATOM     15  C   UNL     1       4.474   4.582  -1.655  1.00  0.00     0.000 A 
ATOM     16  C   UNL     1       4.366   4.659   0.748  1.00  0.00     0.000 A 
ATOM     17  C   UNL     1       4.359   5.308  -0.484  1.00  0.00     0.000 A 
ENDBRANCH  11  12
ENDBRANCH  10  11
BRANCH   8  18
ATOM     18  C   UNL     1       9.053   2.102  -0.020  1.00  0.00     0.014 C 
ATOM     19  C   UNL     1       8.313   2.925   0.981  1.00  0.00     0.006 C 
ATOM     20  C   UNL     1       9.207   2.692  -1.359  1.00  0.00     0.006 C 
ATOM     21  C   UNL     1       8.826   4.323   0.891  1.00  0.00     0.000 C 
ATOM     22  C   UNL     1       8.591   4.020  -1.601  1.00  0.00     0.000 C 
ATOM     23  C   UNL     1       8.351   4.888  -0.416  1.00  0.00     0.000 C 
ENDBRANCH   8  18
TORSDOF 3
ENDMDL
MODEL 2
REMARK VINA RESULT:      -5.1      0.857      1.050
REMARK SMILES O=C1c2cccn2C(C2CCCCC2)CN1Cc1ccccc1
REMARK SMILES IDX 1 1 2 2 3 3 4 4 5 5 6 6 7 7 8 8 15 9 16 10 17 11 18 12 19 13
REMARK SMILES IDX 23 14 20 15 22 16 21 17 9 18 10 19 14 20 11 21 13 22 12 23
REMARK H PARENT
ROOT
ATOM      1  O   UNL     1       5.290  -0.528   0.968  1.00  0.00    -0.267 OA
ATOM      2  C   UNL     1       6.293   0.158   0.664  1.00  0.00     0.270 C 
ATOM      3  C   UNL     1       7.552  -0.093   1.318  1.00  0.00     0.107 A 
ATOM      4  C   UNL     1       7.871  -1.034   2.300  1.00  0.00     0.033 A 
ATOM      5  C   UNL     1       9.207  -0.826   2.552  1.00  0.00     0.020 A 
ATOM      6  C   UNL     1       9.672   0.190   1.760  1.00  0.00     0.087 A 
ATOM      7  N   UNL     1       8.637   0.630   1.005  1.00  0.00    -0.338 N 
ATOM      8  C   UNL     1       8.649   1.690   0.023  1.00  0.00     0.110 C 
ATOM      9  C   UNL     1       7.447   1.766  -0.822  1.00  0.00     0.146 C 
ATOM     10  N   UNL     1       6.242   1.189  -0.315  1.00  0.00    -0.331 N 
ENDROOT
BRANCH  10  11
ATOM     11  C   UNL     1       4.969   1.669  -0.809  1.00  0.00     0.155 C 
BRANCH  11  12
ATOM     12  C   UNL     1       4.676   3.070  -0.493  1.00  0.00    -0.029 A 
ATOM     13  C   UNL     1       4.538   3.970  -1.541  1.00  0.00     0.005 A 
ATOM     14  C   UNL     1       4.525   3.573   0.784  1.00  0.00     0.005 A 
ATOM     15  C   UNL     1       4.263   5.305  -1.343  1.00  0.00     0.000 A 
ATOM     16  C   UNL     1       4.248   4.911   1.032  1.00  0.00     0.000 A 
ATOM     17  C   UNL     1       4.117   5.777  -0.052  1.00  0.00     0.000 A 
ENDBRANCH  11  12
ENDBRANCH  10  11
BRANCH   8  18
ATOM     18  C   UNL     1       8.935   3.028   0.696  1.00  0.00     0.014 C 
ATOM     19  C   UNL     1       8.003   3.267   1.836  1.00  0.00     0.006 C 
ATOM     20  C   UNL     1       9.038   4.111  -0.296  1.00  0.00     0.006 C 
ATOM     21  C   UNL     1       8.243   4.651   2.339  1.00  0.00     0.000 C 
ATOM     22  C   UNL     1       8.192   5.312  -0.093  1.00  0.00     0.000 C 
ATOM     23  C   UNL     1       7.733   5.599   1.294  1.00  0.00     0.000 C 
ENDBRANCH   8  18
TORSDOF 3
ENDMDL
MODEL 3
REMARK VINA RESULT:      -4.8      1.026      1.585
REMARK SMILES O=C1c2cccn2C(C2CCCCC2)CN1Cc1ccccc1
REMARK SMILES IDX 1 1 2 2 3 3 4 4 5 5 6 6 7 7 8 8 15 9 16 10 17 11 18 12 19 13
REMARK SMILES IDX 23 14 20 15 22 16 21 17 9 18 10 19 14 20 11 21 13 22 12 23
REMARK H PARENT
ROOT
ATOM      1  O   UNL     1       4.150   0.251   1.274  1.00  0.00    -0.267 OA
ATOM      2  C   UNL     1       5.360   0.516   1.090  1.00  0.00     0.270 C 
ATOM      3  C   UNL     1       6.326   0.171   2.102  1.00  0.00     0.107 A 
ATOM      4  C   UNL     1       6.134  -0.450   3.340  1.00  0.00     0.033 A 
ATOM      5  C   UNL     1       7.395  -0.527   3.883  1.00  0.00     0.020 A 
ATOM      6  C   UNL     1       8.304   0.020   3.017  1.00  0.00     0.087 A 
ATOM      7  N   UNL     1       7.627   0.445   1.924  1.00  0.00    -0.338 N 
ATOM      8  C   UNL     1       8.164   1.089   0.747  1.00  0.00     0.110 C 
ATOM      9  C   UNL     1       7.228   1.197  -0.383  1.00  0.00     0.146 C 
ATOM     10  N   UNL     1       5.830   1.150  -0.093  1.00  0.00    -0.331 N 
ENDROOT
BRANCH  10  11
ATOM     11  C   UNL     1       4.898   1.758  -1.018  1.00  0.00     0.155 C 
BRANCH  11  12
ATOM     12  C   UNL     1       4.614   3.174  -0.763  1.00  0.00    -0.029 A 
ATOM     13  C   UNL     1       4.665   3.634   0.545  1.00  0.00     0.005 A 
ATOM     14  C   UNL     1       4.295   4.099  -1.737  1.00  0.00     0.005 A 
ATOM     15  C   UNL     1       4.415   4.945   0.882  1.00  0.00     0.000 A 
ATOM     16  C   UNL     1       4.035   5.432  -1.444  1.00  0.00     0.000 A 
ATOM     17  C   UNL     1       4.099   5.847  -0.116  1.00  0.00     0.000 A 
ENDBRANCH  11  12
ENDBRANCH  10  11
BRANCH   8  18
ATOM     18  C   UNL     1       8.749   2.449   1.111  1.00  0.00     0.014 C 
ATOM     19  C   UNL     1       8.066   3.025   2.305  1.00  0.00     0.006 C 
ATOM     20  C   UNL     1       8.840   3.322  -0.070  1.00  0.00     0.006 C 
ATOM     21  C   UNL     1       8.584   4.410   2.503  1.00  0.00     0.000 C 
ATOM     22  C   UNL     1       8.221   4.667   0.021  1.00  0.00     0.000 C 
ATOM     23  C   UNL     1       8.047   5.249   1.380  1.00  0.00     0.000 C 
ENDBRANCH   8  18
TORSDOF 3
ENDMDL
MODEL 4
REMARK VINA RESULT:      -4.6      2.059      5.876
REMARK SMILES O=C1c2cccn2C(C2CCCCC2)CN1Cc1ccccc1
REMARK SMILES IDX 1 1 2 2 3 3 4 4 5 5 6 6 7 7 8 8 15 9 16 10 17 11 18 12 19 13
REMARK SMILES IDX 23 14 20 15 22 16 21 17 9 18 10 19 14 20 11 21 13 22 12 23
REMARK H PARENT
ROOT
ATOM      1  O   UNL     1       7.357   5.290   1.759  1.00  0.00    -0.267 OA
ATOM      2  C   UNL     1       7.000   4.459   0.893  1.00  0.00     0.270 C 
ATOM      3  C   UNL     1       5.819   4.712   0.107  1.00  0.00     0.107 A 
ATOM      4  C   UNL     1       4.942   5.800   0.145  1.00  0.00     0.033 A 
ATOM      5  C   UNL     1       4.002   5.515  -0.817  1.00  0.00     0.020 A 
ATOM      6  C   UNL     1       4.296   4.315  -1.407  1.00  0.00     0.087 A 
ATOM      7  N   UNL     1       5.420   3.834  -0.825  1.00  0.00    -0.338 N 
ATOM      8  C   UNL     1       6.108   2.597  -1.119  1.00  0.00     0.110 C 
ATOM      9  C   UNL     1       7.441   2.469  -0.510  1.00  0.00     0.146 C 
ATOM     10  N   UNL     1       7.720   3.257   0.648  1.00  0.00    -0.331 N 
ENDROOT
BRANCH  10  11
ATOM     11  C   UNL     1       8.745   2.816   1.570  1.00  0.00     0.155 C 
BRANCH  11  12
ATOM     12  C   UNL     1       8.421   1.592   2.309  1.00  0.00    -0.029 A 
ATOM     13  C   UNL     1       9.171   0.450   2.060  1.00  0.00     0.005 A 
ATOM     14  C   UNL     1       7.413   1.483   3.246  1.00  0.00     0.005 A 
ATOM     15  C   UNL     1       8.941  -0.745   2.704  1.00  0.00     0.000 A 
ATOM     16  C   UNL     1       7.144   0.298   3.920  1.00  0.00     0.000 A 
ATOM     17  C   UNL     1       7.924  -0.821   3.638  1.00  0.00     0.000 A 
ENDBRANCH  11  12
ENDBRANCH  10  11
BRANCH   8  18
ATOM     18  C   UNL     1       5.223   1.407  -0.765  1.00  0.00     0.014 C 
ATOM     19  C   UNL     1       4.335   1.722   0.391  1.00  0.00     0.006 C 
ATOM     20  C   UNL     1       6.013   0.170  -0.659  1.00  0.00     0.006 C 
ATOM     21  C   UNL     1       3.619   0.469   0.771  1.00  0.00     0.000 C 
ATOM     22  C   UNL     1       5.884  -0.624   0.587  1.00  0.00     0.000 C 
ATOM     23  C   UNL     1       4.634  -0.456   1.378  1.00  0.00     0.000 C 
ENDBRANCH   8  18
TORSDOF 3
ENDMDL
MODEL 5
REMARK VINA RESULT:      -4.5      2.650      5.691
REMARK SMILES O=C1c2cccn2C(C2CCCCC2)CN1Cc1ccccc1
REMARK SMILES IDX 1 1 2 2 3 3 4 4 5 5 6 6 7 7 8 8 15 9 16 10 17 11 18 12 19 13
REMARK SMILES IDX 23 14 20 15 22 16 21 17 9 18 10 19 14 20 11 21 13 22 12 23
REMARK H PARENT
ROOT
ATOM      1  O   UNL     1       8.281   4.855   3.759  1.00  0.00    -0.267 OA
ATOM      2  C   UNL     1       7.404   5.019   2.880  1.00  0.00     0.270 C 
ATOM      3  C   UNL     1       6.059   5.356   3.271  1.00  0.00     0.107 A 
ATOM      4  C   UNL     1       5.525   5.545   4.548  1.00  0.00     0.033 A 
ATOM      5  C   UNL     1       4.202   5.846   4.325  1.00  0.00     0.020 A 
ATOM      6  C   UNL     1       3.949   5.840   2.979  1.00  0.00     0.087 A 
ATOM      7  N   UNL     1       5.106   5.536   2.344  1.00  0.00    -0.338 N 
ATOM      8  C   UNL     1       5.327   5.413   0.921  1.00  0.00     0.110 C 
ATOM      9  C   UNL     1       6.739   5.333   0.517  1.00  0.00     0.146 C 
ATOM     10  N   UNL     1       7.684   4.886   1.492  1.00  0.00    -0.331 N 
ENDROOT
BRANCH  10  11
ATOM     11  C   UNL     1       8.928   4.295   1.048  1.00  0.00     0.155 C 
BRANCH  11  12
ATOM     12  C   UNL     1       8.778   3.064   0.265  1.00  0.00    -0.029 A 
ATOM     13  C   UNL     1       8.299   1.928   0.903  1.00  0.00     0.005 A 
ATOM     14  C   UNL     1       9.081   2.944  -1.077  1.00  0.00     0.005 A 
ATOM     15  C   UNL     1       8.125   0.727   0.252  1.00  0.00     0.000 A 
ATOM     16  C   UNL     1       8.921   1.754  -1.775  1.00  0.00     0.000 A 
ATOM     17  C   UNL     1       8.437   0.640  -1.092  1.00  0.00     0.000 A 
ENDBRANCH  11  12
ENDBRANCH  10  11
BRANCH   8  18
ATOM     18  C   UNL     1       4.526   4.242   0.363  1.00  0.00     0.014 C 
ATOM     19  C   UNL     1       4.797   2.992   1.131  1.00  0.00     0.006 C 
ATOM     20  C   UNL     1       4.668   4.149  -1.099  1.00  0.00     0.006 C 
ATOM     21  C   UNL     1       4.103   1.870   0.435  1.00  0.00     0.000 C 
ATOM     22  C   UNL     1       5.095   2.847  -1.667  1.00  0.00     0.000 C 
ATOM     23  C   UNL     1       4.833   1.628  -0.855  1.00  0.00     0.000 C 
ENDBRANCH   8  18
TORSDOF 3
ENDMDL
MODEL 6
REMARK VINA RESULT:      -4.4      2.110      3.762
REMARK SMILES O=C1c2cccn2C(C2CCCCC2)CN1Cc1ccccc1
REMARK SMILES IDX 1 1 2 2 3 3 4 4 5 5 6 6 7 7 8 8 15 9 16 10 17 11 18 12 19 13
REMARK SMILES IDX 23 14 20 15 22 16 21 17 9 18 10 19 14 20 11 21 13 22 12 23
REMARK H PARENT
ROOT
ATOM      1  O   UNL     1       9.382   2.567   2.741  1.00  0.00    -0.267 OA
ATOM      2  C   UNL     1       8.379   1.824   2.637  1.00  0.00     0.270 C 
ATOM      3  C   UNL     1       8.558   0.401   2.500  1.00  0.00     0.107 A 
ATOM      4  C   UNL     1       9.738  -0.347   2.459  1.00  0.00     0.033 A 
ATOM      5  C   UNL     1       9.315  -1.647   2.316  1.00  0.00     0.020 A 
ATOM      6  C   UNL     1       7.946  -1.684   2.274  1.00  0.00     0.087 A 
ATOM      7  N   UNL     1       7.497  -0.411   2.389  1.00  0.00    -0.338 N 
ATOM      8  C   UNL     1       6.125   0.044   2.394  1.00  0.00     0.110 C 
ATOM      9  C   UNL     1       5.939   1.446   2.796  1.00  0.00     0.146 C 
ATOM     10  N   UNL     1       7.050   2.331   2.651  1.00  0.00    -0.331 N 
ENDROOT
BRANCH  10  11
ATOM     11  C   UNL     1       6.807   3.752   2.517  1.00  0.00     0.155 C 
BRANCH  11  12
ATOM     12  C   UNL     1       6.056   4.136   1.317  1.00  0.00    -0.029 A 
ATOM     13  C   UNL     1       4.810   4.726   1.478  1.00  0.00     0.005 A 
ATOM     14  C   UNL     1       6.497   3.953   0.022  1.00  0.00     0.005 A 
ATOM     15  C   UNL     1       4.032   5.120   0.412  1.00  0.00     0.000 A 
ATOM     16  C   UNL     1       5.746   4.334  -1.083  1.00  0.00     0.000 A 
ATOM     17  C   UNL     1       4.502   4.923  -0.873  1.00  0.00     0.000 A 
ENDBRANCH  11  12
ENDBRANCH  10  11
BRANCH   8  18
ATOM     18  C   UNL     1       5.473  -0.235   1.044  1.00  0.00     0.014 C 
ATOM     19  C   UNL     1       6.144   0.532  -0.045  1.00  0.00     0.006 C 
ATOM     20  C   UNL     1       4.009  -0.104   1.124  1.00  0.00     0.006 C 
ATOM     21  C   UNL     1       5.358   0.328  -1.297  1.00  0.00     0.000 C 
ATOM     22  C   UNL     1       3.345   0.795   0.148  1.00  0.00     0.000 C 
ATOM     23  C   UNL     1       4.059   1.062  -1.131  1.00  0.00     0.000 C 
ENDBRANCH   8  18
TORSDOF 3
ENDMDL
MODEL 7
REMARK VINA RESULT:      -4.2      1.988      4.488
REMARK SMILES O=C1c2cccn2C(C2CCCCC2)CN1Cc1ccccc1
REMARK SMILES IDX 1 1 2 2 3 3 4 4 5 5 6 6 7 7 8 8 15 9 16 10 17 11 18 12 19 13
REMARK SMILES IDX 23 14 20 15 22 16 21 17 9 18 10 19 14 20 11 21 13 22 12 23
REMARK H PARENT
ROOT
ATOM      1  O   UNL     1       5.288   3.657  -1.200  1.00  0.00    -0.267 OA
ATOM      2  C   UNL     1       5.920   2.639  -0.839  1.00  0.00     0.270 C 
ATOM      3  C   UNL     1       5.206   1.419  -0.559  1.00  0.00     0.107 A 
ATOM      4  C   UNL     1       3.834   1.157  -0.624  1.00  0.00     0.033 A 
ATOM      5  C   UNL     1       3.720  -0.162  -0.253  1.00  0.00     0.020 A 
ATOM      6  C   UNL     1       4.961  -0.672   0.023  1.00  0.00     0.087 A 
ATOM      7  N   UNL     1       5.865   0.318  -0.171  1.00  0.00    -0.338 N 
ATOM      8  C   UNL     1       7.299   0.249  -0.003  1.00  0.00     0.110 C 
ATOM      9  C   UNL     1       8.042   1.401  -0.538  1.00  0.00     0.146 C 
ATOM     10  N   UNL     1       7.335   2.633  -0.692  1.00  0.00    -0.331 N 
ENDROOT
BRANCH  10  11
ATOM     11  C   UNL     1       8.078   3.875  -0.696  1.00  0.00     0.155 C 
BRANCH  11  12
ATOM     12  C   UNL     1       8.320   4.449   0.631  1.00  0.00    -0.029 A 
ATOM     13  C   UNL     1       7.236   4.925   1.355  1.00  0.00     0.005 A 
ATOM     14  C   UNL     1       9.562   4.557   1.226  1.00  0.00     0.005 A 
ATOM     15  C   UNL     1       7.364   5.480   2.608  1.00  0.00     0.000 A 
ATOM     16  C   UNL     1       9.739   5.110   2.488  1.00  0.00     0.000 A 
ATOM     17  C   UNL     1       8.621   5.573   3.177  1.00  0.00     0.000 A 
ENDBRANCH  11  12
ENDBRANCH  10  11
BRANCH   8  18
ATOM     18  C   UNL     1       7.646   0.001   1.461  1.00  0.00     0.014 C 
ATOM     19  C   UNL     1       6.909   0.942   2.354  1.00  0.00     0.006 C 
ATOM     20  C   UNL     1       9.102  -0.074   1.657  1.00  0.00     0.006 C 
ATOM     21  C   UNL     1       7.415   0.742   3.744  1.00  0.00     0.000 C 
ATOM     22  C   UNL     1       9.704   0.806   2.689  1.00  0.00     0.000 C 
ATOM     23  C   UNL     1       8.817   1.276   3.788  1.00  0.00     0.000 C 
ENDBRANCH   8  18
TORSDOF 3
ENDMDL
MODEL 8
REMARK VINA RESULT:      -4.2      2.030      5.940
REMARK SMILES O=C1c2cccn2C(C2CCCCC2)CN1Cc1ccccc1
REMARK SMILES IDX 1 1 2 2 3 3 4 4 5 5 6 6 7 7 8 8 15 9 16 10 17 11 18 12 19 13
REMARK SMILES IDX 23 14 20 15 22 16 21 17 9 18 10 19 14 20 11 21 13 22 12 23
REMARK H PARENT
ROOT
ATOM      1  O   UNL     1       7.969   3.954   3.558  1.00  0.00    -0.267 OA
ATOM      2  C   UNL     1       7.592   3.675   2.397  1.00  0.00     0.270 C 
ATOM      3  C   UNL     1       6.310   4.143   1.934  1.00  0.00     0.107 A 
ATOM      4  C   UNL     1       5.348   4.907   2.600  1.00  0.00     0.033 A 
ATOM      5  C   UNL     1       4.333   5.054   1.683  1.00  0.00     0.020 A 
ATOM      6  C   UNL     1       4.666   4.411   0.521  1.00  0.00     0.087 A 
ATOM      7  N   UNL     1       5.889   3.855   0.693  1.00  0.00    -0.338 N 
ATOM      8  C   UNL     1       6.648   3.078  -0.260  1.00  0.00     0.110 C 
ATOM      9  C   UNL     1       8.048   2.831   0.117  1.00  0.00     0.146 C 
ATOM     10  N   UNL     1       8.386   2.906   1.502  1.00  0.00    -0.331 N 
ENDROOT
BRANCH  10  11
ATOM     11  C   UNL     1       9.546   2.188   1.985  1.00  0.00     0.155 C 
BRANCH  11  12
ATOM     12  C   UNL     1       9.327   0.758   2.226  1.00  0.00    -0.029 A 
ATOM     13  C   UNL     1       8.659   0.377   3.382  1.00  0.00     0.005 A 
ATOM     14  C   UNL     1       9.739  -0.254   1.382  1.00  0.00     0.005 A 
ATOM     15  C   UNL     1       8.407  -0.940   3.694  1.00  0.00     0.000 A 
ATOM     16  C   UNL     1       9.507  -1.596   1.656  1.00  0.00     0.000 A 
ATOM     17  C   UNL     1       8.832  -1.930   2.828  1.00  0.00     0.000 A 
ENDBRANCH  11  12
ENDBRANCH  10  11
BRANCH   8  18
ATOM     18  C   UNL     1       5.922   1.774  -0.573  1.00  0.00     0.014 C 
ATOM     19  C   UNL     1       4.549   2.034  -1.094  1.00  0.00     0.006 C 
ATOM     20  C   UNL     1       6.022   0.828   0.550  1.00  0.00     0.006 C 
ATOM     21  C   UNL     1       3.855   0.721  -1.228  1.00  0.00     0.000 C 
ATOM     22  C   UNL     1       4.761   0.252   1.078  1.00  0.00     0.000 C 
ATOM     23  C   UNL     1       3.589   0.215   0.160  1.00  0.00     0.000 C 
ENDBRANCH   8  18
TORSDOF 3
ENDMDL
MODEL 9
REMARK VINA RESULT:      -4.1      2.111      5.935
REMARK SMILES O=C1c2cccn2C(C2CCCCC2)CN1Cc1ccccc1
REMARK SMILES IDX 1 1 2 2 3 3 4 4 5 5 6 6 7 7 8 8 15 9 16 10 17 11 18 12 19 13
REMARK SMILES IDX 23 14 20 15 22 16 21 17 9 18 10 19 14 20 11 21 13 22 12 23
REMARK H PARENT
ROOT
ATOM      1  O   UNL     1       7.607   5.313   1.202  1.00  0.00    -0.267 OA
ATOM      2  C   UNL     1       7.309   4.354   0.453  1.00  0.00     0.270 C 
ATOM      3  C   UNL     1       6.101   4.411  -0.329  1.00  0.00     0.107 A 
ATOM      4  C   UNL     1       5.135   5.420  -0.402  1.00  0.00     0.033 A 
ATOM      5  C   UNL     1       4.209   4.942  -1.299  1.00  0.00     0.020 A 
ATOM      6  C   UNL     1       4.596   3.707  -1.747  1.00  0.00     0.087 A 
ATOM      7  N   UNL     1       5.765   3.396  -1.137  1.00  0.00    -0.338 N 
ATOM      8  C   UNL     1       6.550   2.193  -1.296  1.00  0.00     0.110 C 
ATOM      9  C   UNL     1       7.897   2.251  -0.709  1.00  0.00     0.146 C 
ATOM     10  N   UNL     1       8.125   3.195   0.338  1.00  0.00    -0.331 N 
ENDROOT
BRANCH  10  11
ATOM     11  C   UNL     1       9.197   2.957   1.282  1.00  0.00     0.155 C 
BRANCH  11  12
ATOM     12  C   UNL     1       8.926   1.904   2.266  1.00  0.00    -0.029 A 
ATOM     13  C   UNL     1       8.085   2.195   3.331  1.00  0.00     0.005 A 
ATOM     14  C   UNL     1       9.449   0.628   2.216  1.00  0.00     0.005 A 
ATOM     15  C   UNL     1       7.771   1.273   4.304  1.00  0.00     0.000 A 
ATOM     16  C   UNL     1       9.162  -0.335   3.175  1.00  0.00     0.000 A 
ATOM     17  C   UNL     1       8.312   0.003   4.225  1.00  0.00     0.000 A 
ENDBRANCH  11  12
ENDBRANCH  10  11
BRANCH   8  18
ATOM     18  C   UNL     1       5.774   0.986  -0.779  1.00  0.00     0.014 C 
ATOM     19  C   UNL     1       4.328   1.087  -1.128  1.00  0.00     0.006 C 
ATOM     20  C   UNL     1       6.084   0.720   0.634  1.00  0.00     0.006 C 
ATOM     21  C   UNL     1       3.617  -0.042  -0.461  1.00  0.00     0.000 C 
ATOM     22  C   UNL     1       4.945   0.613   1.579  1.00  0.00     0.000 C 
ATOM     23  C   UNL     1       3.620   0.240   1.013  1.00  0.00     0.000 C 
ENDBRANCH   8  18
TORSDOF 3
ENDMDL
