MODEL 1
REMARK VINA RESULT:       0.7      0.000      0.000
REMARK SMILES C=C1N(CCSC(O)CCCN)C(=O)CC12C=c1c(N3CCOCC3)ncnc1=NC2
REMARK SMILES IDX 7 1 6 2 5 3 4 4 3 5 2 6 16 7 13 8 15 9 17 10 31 11 18 12
REMARK SMILES IDX 30 13 19 14 29 15 26 16 28 17 27 18 1 19 14 20 20 21 21 22
REMARK SMILES IDX 25 23 22 24 24 25 23 26 8 27 9 29 10 30 11 31 12 32
REMARK H PARENT 8 28 12 33 12 34
ROOT
ATOM      1  C   UNL     1       4.344   0.944  -0.457  1.00  0.00     0.171 C 
ENDROOT
BRANCH   1   2
ATOM      2  S   UNL     1       4.243   1.789  -2.049  1.00  0.00    -0.129 SA
BRANCH   2   3
ATOM      3  C   UNL     1       4.882   3.463  -1.977  1.00  0.00     0.094 C 
BRANCH   3   4
ATOM      4  C   UNL     1       6.259   3.573  -2.597  1.00  0.00     0.136 C 
BRANCH   4   5
ATOM      5  N   UNL     1       7.293   3.690  -1.584  1.00  0.00    -0.315 N 
ATOM      6  C   UNL     1       7.100   3.669  -0.154  1.00  0.00     0.026 C 
ATOM      7  C   UNL     1       8.425   3.907   0.500  1.00  0.00     0.058 C 
ATOM      8  C   UNL     1       8.699   3.850  -1.792  1.00  0.00     0.228 C 
ATOM      9  C   UNL     1       9.331   3.253  -0.562  1.00  0.00     0.120 C 
ATOM     10  C   UNL     1       8.529   3.204   1.779  1.00  0.00     0.004 C 
ATOM     11  C   UNL     1       8.777   5.342   0.566  1.00  0.00     0.162 C 
ATOM     12  C   UNL     1       8.902   3.731   2.926  1.00  0.00     0.059 A 
ATOM     13  N   UNL     1       9.156   5.765   1.869  1.00  0.00    -0.265 NA
ATOM     14  C   UNL     1       8.965   2.974   4.066  1.00  0.00     0.141 A 
ATOM     15  C   UNL     1       9.218   5.068   2.924  1.00  0.00     0.159 A 
ATOM     16  N   UNL     1       9.352   3.598   5.200  1.00  0.00    -0.219 NA
ATOM     17  N   UNL     1       9.599   5.655   4.067  1.00  0.00    -0.217 NA
ATOM     18  C   UNL     1       9.663   4.913   5.206  1.00  0.00     0.226 A 
ATOM     19  C   UNL     1       5.968   3.477   0.505  1.00  0.00     0.033 C 
ATOM     20  O   UNL     1       9.230   4.370  -2.782  1.00  0.00    -0.274 OA
BRANCH  14  21
ATOM     21  N   UNL     1       8.666   1.591   4.131  1.00  0.00    -0.351 N 
ATOM     22  C   UNL     1       7.370   1.028   3.807  1.00  0.00     0.146 C 
ATOM     23  C   UNL     1       9.704   0.689   4.543  1.00  0.00     0.146 C 
ATOM     24  C   UNL     1       6.996  -0.100   4.731  1.00  0.00     0.181 C 
ATOM     25  C   UNL     1       9.167  -0.564   5.200  1.00  0.00     0.181 C 
ATOM     26  O   UNL     1       8.029  -1.057   4.609  1.00  0.00    -0.378 OA
ENDBRANCH  14  21
ENDBRANCH   4   5
ENDBRANCH   3   4
ENDBRANCH   2   3
ENDBRANCH   1   2
BRANCH   1  27
ATOM     27  O   UNL     1       5.613   1.017   0.087  1.00  0.00    -0.382 OA
ATOM     28  H   UNL     1       6.204   1.658  -0.380  1.00  0.00     0.212 HD
ENDBRANCH   1  27
BRANCH   1  29
ATOM     29  C   UNL     1       3.999  -0.518  -0.677  1.00  0.00     0.044 C 
BRANCH  29  30
ATOM     30  C   UNL     1       2.837  -0.944   0.179  1.00  0.00     0.019 C 
BRANCH  30  31
ATOM     31  C   UNL     1       2.570   0.018   1.327  1.00  0.00     0.078 C 
BRANCH  31  32
ATOM     32  N   UNL     1       3.144   1.299   0.970  1.00  0.00    -0.330 NA
ATOM     33  H   UNL     1       2.570   2.118   1.251  1.00  0.00     0.118 HD
ATOM     34  H   UNL     1       4.102   1.428   1.372  1.00  0.00     0.118 HD
ENDBRANCH  31  32
ENDBRANCH  30  31
ENDBRANCH  29  30
ENDBRANCH   1  29
TORSDOF 10
ENDMDL
MODEL 2
REMARK VINA RESULT:       2.8      1.392      1.808
REMARK SMILES C=C1N(CCSC(O)CCCN)C(=O)CC12C=c1c(N3CCOCC3)ncnc1=NC2
REMARK SMILES IDX 7 1 6 2 5 3 4 4 3 5 2 6 16 7 13 8 15 9 17 10 31 11 18 12
REMARK SMILES IDX 30 13 19 14 29 15 26 16 28 17 27 18 1 19 14 20 20 21 21 22
REMARK SMILES IDX 25 23 22 24 24 25 23 26 8 27 9 29 10 30 11 31 12 32
REMARK H PARENT 8 28 12 33 12 34
ROOT
ATOM      1  C   UNL     1       5.277   0.186   0.033  1.00  0.00     0.171 C 
ENDROOT
BRANCH   1   2
ATOM      2  S   UNL     1       3.939   1.136  -0.720  1.00  0.00    -0.129 SA
BRANCH   2   3
ATOM      3  C   UNL     1       4.490   2.092  -2.134  1.00  0.00     0.094 C 
BRANCH   3   4
ATOM      4  C   UNL     1       4.747   3.540  -1.774  1.00  0.00     0.136 C 
BRANCH   4   5
ATOM      5  N   UNL     1       5.972   3.691  -1.007  1.00  0.00    -0.315 N 
ATOM      6  C   UNL     1       6.091   3.673   0.430  1.00  0.00     0.026 C 
ATOM      7  C   UNL     1       7.519   3.951   0.784  1.00  0.00     0.058 C 
ATOM      8  C   UNL     1       7.294   3.889  -1.514  1.00  0.00     0.228 C 
ATOM      9  C   UNL     1       8.193   3.316  -0.448  1.00  0.00     0.120 C 
ATOM     10  C   UNL     1       7.915   3.259   2.010  1.00  0.00     0.004 C 
ATOM     11  C   UNL     1       7.836   5.396   0.773  1.00  0.00     0.162 C 
ATOM     12  C   UNL     1       8.511   3.802   3.050  1.00  0.00     0.059 A 
ATOM     13  N   UNL     1       8.475   5.837   1.964  1.00  0.00    -0.265 NA
ATOM     14  C   UNL     1       8.839   3.054   4.149  1.00  0.00     0.141 A 
ATOM     15  C   UNL     1       8.782   5.148   2.981  1.00  0.00     0.159 A 
ATOM     16  N   UNL     1       9.444   3.695   5.174  1.00  0.00    -0.219 NA
ATOM     17  N   UNL     1       9.382   5.751   4.015  1.00  0.00    -0.217 NA
ATOM     18  C   UNL     1       9.712   5.018   5.113  1.00  0.00     0.226 A 
ATOM     19  C   UNL     1       5.134   3.453   1.318  1.00  0.00     0.033 C 
ATOM     20  O   UNL     1       7.585   4.418  -2.594  1.00  0.00    -0.274 OA
BRANCH  14  21
ATOM     21  N   UNL     1       8.601   1.663   4.277  1.00  0.00    -0.351 N 
ATOM     22  C   UNL     1       9.648   0.678   4.454  1.00  0.00     0.146 C 
ATOM     23  C   UNL     1       7.244   1.198   4.229  1.00  0.00     0.146 C 
ATOM     24  C   UNL     1       9.366  -0.591   3.693  1.00  0.00     0.181 C 
ATOM     25  C   UNL     1       7.128  -0.221   3.718  1.00  0.00     0.181 C 
ATOM     26  O   UNL     1       8.120  -1.057   4.168  1.00  0.00    -0.378 OA
ENDBRANCH  14  21
ENDBRANCH   4   5
ENDBRANCH   3   4
ENDBRANCH   2   3
ENDBRANCH   1   2
BRANCH   1  27
ATOM     27  O   UNL     1       6.417   0.949   0.209  1.00  0.00    -0.382 OA
ATOM     28  H   UNL     1       6.366   1.837  -0.225  1.00  0.00     0.212 HD
ENDBRANCH   1  27
BRANCH   1  29
ATOM     29  C   UNL     1       5.613  -0.971  -0.892  1.00  0.00     0.044 C 
BRANCH  29  30
ATOM     30  C   UNL     1       5.697  -2.270  -0.137  1.00  0.00     0.019 C 
BRANCH  30  31
ATOM     31  C   UNL     1       4.733  -3.321  -0.667  1.00  0.00     0.078 C 
BRANCH  31  32
ATOM     32  N   UNL     1       3.416  -2.722  -0.719  1.00  0.00    -0.330 NA
ATOM     33  H   UNL     1       2.648  -3.392  -0.920  1.00  0.00     0.118 HD
ATOM     34  H   UNL     1       3.175  -2.220   0.168  1.00  0.00     0.118 HD
ENDBRANCH  31  32
ENDBRANCH  30  31
ENDBRANCH  29  30
ENDBRANCH   1  29
TORSDOF 10
ENDMDL
MODEL 3
REMARK VINA RESULT:       3.6      2.554      7.425
REMARK SMILES C=C1N(CCSC(O)CCCN)C(=O)CC12C=c1c(N3CCOCC3)ncnc1=NC2
REMARK SMILES IDX 7 1 6 2 5 3 4 4 3 5 2 6 16 7 13 8 15 9 17 10 31 11 18 12
REMARK SMILES IDX 30 13 19 14 29 15 26 16 28 17 27 18 1 19 14 20 20 21 21 22
REMARK SMILES IDX 25 23 22 24 24 25 23 26 8 27 9 29 10 30 11 31 12 32
REMARK H PARENT 8 28 12 33 12 34
ROOT
ATOM      1  C   UNL     1       8.627   3.055   1.520  1.00  0.00     0.171 C 
ENDROOT
BRANCH   1   2
ATOM      2  S   UNL     1       9.732   1.868   2.312  1.00  0.00    -0.129 SA
BRANCH   2   3
ATOM      3  C   UNL     1       9.204   1.442   3.971  1.00  0.00     0.094 C 
BRANCH   3   4
ATOM      4  C   UNL     1       8.460   0.124   4.010  1.00  0.00     0.136 C 
BRANCH   4   5
ATOM      5  N   UNL     1       7.630  -0.056   2.831  1.00  0.00    -0.315 N 
ATOM      6  C   UNL     1       6.602   0.842   2.361  1.00  0.00     0.026 C 
ATOM      7  C   UNL     1       5.948   0.218   1.168  1.00  0.00     0.058 C 
ATOM      8  C   UNL     1       7.658  -1.146   1.907  1.00  0.00     0.228 C 
ATOM      9  C   UNL     1       7.161  -0.555   0.613  1.00  0.00     0.120 C 
ATOM     10  C   UNL     1       5.493   1.229   0.213  1.00  0.00     0.004 C 
ATOM     11  C   UNL     1       4.916  -0.775   1.539  1.00  0.00     0.162 C 
ATOM     12  C   UNL     1       4.292   1.309  -0.319  1.00  0.00     0.059 A 
ATOM     13  N   UNL     1       3.672  -0.557   0.886  1.00  0.00    -0.265 NA
ATOM     14  C   UNL     1       3.976   2.302  -1.207  1.00  0.00     0.141 A 
ATOM     15  C   UNL     1       3.377   0.357   0.063  1.00  0.00     0.159 A 
ATOM     16  N   UNL     1       2.718   2.312  -1.700  1.00  0.00    -0.219 NA
ATOM     17  N   UNL     1       2.137   0.397  -0.445  1.00  0.00    -0.217 NA
ATOM     18  C   UNL     1       1.812   1.380  -1.328  1.00  0.00     0.226 A 
ATOM     19  C   UNL     1       6.263   2.017   2.866  1.00  0.00     0.033 C 
ATOM     20  O   UNL     1       8.020  -2.302   2.162  1.00  0.00    -0.274 OA
BRANCH  14  21
ATOM     21  N   UNL     1       4.876   3.302  -1.651  1.00  0.00    -0.351 N 
ATOM     22  C   UNL     1       5.951   3.061  -2.593  1.00  0.00     0.146 C 
ATOM     23  C   UNL     1       4.718   4.635  -1.141  1.00  0.00     0.146 C 
ATOM     24  C   UNL     1       7.196   3.830  -2.239  1.00  0.00     0.181 C 
ATOM     25  C   UNL     1       6.016   5.412  -1.120  1.00  0.00     0.181 C 
ATOM     26  O   UNL     1       6.815   5.191  -2.215  1.00  0.00    -0.378 OA
ENDBRANCH  14  21
ENDBRANCH   4   5
ENDBRANCH   3   4
ENDBRANCH   2   3
ENDBRANCH   1   2
BRANCH   1  27
ATOM     27  O   UNL     1       8.951   3.255   0.190  1.00  0.00    -0.382 OA
ATOM     28  H   UNL     1       8.540   4.067  -0.197  1.00  0.00     0.212 HD
ENDBRANCH   1  27
BRANCH   1  29
ATOM     29  C   UNL     1       8.756   4.380   2.250  1.00  0.00     0.044 C 
BRANCH  29  30
ATOM     30  C   UNL     1       8.689   5.542   1.296  1.00  0.00     0.019 C 
BRANCH  30  31
ATOM     31  C   UNL     1       9.740   5.464   0.199  1.00  0.00     0.078 C 
BRANCH  31  32
ATOM     32  N   UNL     1       9.101   5.825  -1.049  1.00  0.00    -0.330 NA
ATOM     33  H   UNL     1       9.394   6.746  -1.429  1.00  0.00     0.118 HD
ATOM     34  H   UNL     1       9.258   5.108  -1.795  1.00  0.00     0.118 HD
ENDBRANCH  31  32
ENDBRANCH  30  31
ENDBRANCH  29  30
ENDBRANCH   1  29
TORSDOF 10
ENDMDL
MODEL 4
REMARK VINA RESULT:       3.6      2.543      5.754
REMARK SMILES C=C1N(CCSC(O)CCCN)C(=O)CC12C=c1c(N3CCOCC3)ncnc1=NC2
REMARK SMILES IDX 7 1 6 2 5 3 4 4 3 5 2 6 16 7 13 8 15 9 17 10 31 11 18 12
REMARK SMILES IDX 30 13 19 14 29 15 26 16 28 17 27 18 1 19 14 20 20 21 21 22
REMARK SMILES IDX 25 23 22 24 24 25 23 26 8 27 9 29 10 30 11 31 12 32
REMARK H PARENT 8 28 12 33 12 34
ROOT
ATOM      1  C   UNL     1       7.795   4.362   1.934  1.00  0.00     0.171 C 
ENDROOT
BRANCH   1   2
ATOM      2  S   UNL     1       8.461   4.389   0.256  1.00  0.00    -0.129 SA
BRANCH   2   3
ATOM      3  C   UNL     1       7.884   5.800  -0.687  1.00  0.00     0.094 C 
BRANCH   3   4
ATOM      4  C   UNL     1       6.380   5.791  -0.859  1.00  0.00     0.136 C 
BRANCH   4   5
ATOM      5  N   UNL     1       5.795   4.550  -0.381  1.00  0.00    -0.315 N 
ATOM      6  C   UNL     1       6.395   3.239  -0.443  1.00  0.00     0.026 C 
ATOM      7  C   UNL     1       5.405   2.247   0.083  1.00  0.00     0.058 C 
ATOM      8  C   UNL     1       4.519   4.374   0.239  1.00  0.00     0.228 C 
ATOM      9  C   UNL     1       4.687   3.152   1.105  1.00  0.00     0.120 C 
ATOM     10  C   UNL     1       6.067   1.128   0.754  1.00  0.00     0.004 C 
ATOM     11  C   UNL     1       4.409   1.843  -0.933  1.00  0.00     0.162 C 
ATOM     12  C   UNL     1       5.846  -0.150   0.532  1.00  0.00     0.059 A 
ATOM     13  N   UNL     1       4.283   0.433  -1.061  1.00  0.00    -0.265 NA
ATOM     14  C   UNL     1       6.527  -1.117   1.222  1.00  0.00     0.141 A 
ATOM     15  C   UNL     1       4.909  -0.464  -0.424  1.00  0.00     0.159 A 
ATOM     16  N   UNL     1       6.241  -2.404   0.926  1.00  0.00    -0.219 NA
ATOM     17  N   UNL     1       4.650  -1.750  -0.692  1.00  0.00    -0.217 NA
ATOM     18  C   UNL     1       5.322  -2.720  -0.013  1.00  0.00     0.226 A 
ATOM     19  C   UNL     1       7.603   2.924  -0.881  1.00  0.00     0.033 C 
ATOM     20  O   UNL     1       3.526   5.094   0.071  1.00  0.00    -0.274 OA
BRANCH  14  21
ATOM     21  N   UNL     1       7.494  -0.860   2.226  1.00  0.00    -0.351 N 
ATOM     22  C   UNL     1       7.644   0.417   2.893  1.00  0.00     0.146 C 
ATOM     23  C   UNL     1       8.377  -1.925   2.608  1.00  0.00     0.146 C 
ATOM     24  C   UNL     1       9.090   0.759   3.141  1.00  0.00     0.181 C 
ATOM     25  C   UNL     1       9.707  -1.425   3.130  1.00  0.00     0.181 C 
ATOM     26  O   UNL     1       9.609  -0.303   3.916  1.00  0.00    -0.378 OA
ENDBRANCH  14  21
ENDBRANCH   4   5
ENDBRANCH   3   4
ENDBRANCH   2   3
ENDBRANCH   1   2
BRANCH   1  27
ATOM     27  O   UNL     1       6.463   4.730   1.967  1.00  0.00    -0.382 OA
ATOM     28  H   UNL     1       5.910   4.154   2.551  1.00  0.00     0.212 HD
ENDBRANCH   1  27
BRANCH   1  29
ATOM     29  C   UNL     1       8.588   5.348   2.773  1.00  0.00     0.044 C 
BRANCH  29  30
ATOM     30  C   UNL     1       9.461   4.642   3.773  1.00  0.00     0.019 C 
BRANCH  30  31
ATOM     31  C   UNL     1       8.727   3.538   4.519  1.00  0.00     0.078 C 
BRANCH  31  32
ATOM     32  N   UNL     1       9.717   2.597   4.998  1.00  0.00    -0.330 NA
ATOM     33  H   UNL     1      10.698   2.857   4.777  1.00  0.00     0.118 HD
ATOM     34  H   UNL     1       9.652   2.448   6.032  1.00  0.00     0.118 HD
ENDBRANCH  31  32
ENDBRANCH  30  31
ENDBRANCH  29  30
ENDBRANCH   1  29
TORSDOF 10
ENDMDL
