MODEL 1
REMARK VINA RESULT:      -0.6      0.000      0.000
REMARK SMILES Cc1cccc(S(=O)(=O)N2CCN(S(=O)(=O)c3ccc4c(c3)OCCO4)CC2)c1
REMARK SMILES IDX 10 1 11 2 12 3 13 4 27 5 28 6 7 7 8 8 9 9 6 10 2 11 3 12
REMARK SMILES IDX 29 13 4 14 5 15 1 16 14 17 15 18 16 19 17 20 18 21 22 22
REMARK SMILES IDX 19 23 21 24 20 25 23 26 26 27 24 28 25 29
REMARK H PARENT
ROOT
ATOM      1  N   UNL     1       8.235   2.229   4.448  1.00  0.00    -0.195 NA
ATOM      2  C   UNL     1       7.012   1.656   3.989  1.00  0.00     0.119 C 
ATOM      3  C   UNL     1       7.042   1.307   2.534  1.00  0.00     0.119 C 
ATOM      4  N   UNL     1       8.394   1.057   2.134  1.00  0.00    -0.195 NA
ATOM      5  C   UNL     1       9.152   0.417   3.197  1.00  0.00     0.119 C 
ATOM      6  C   UNL     1       9.363   1.348   4.369  1.00  0.00     0.119 C 
ENDROOT
BRANCH   1   7
ATOM      7  S   UNL     1       8.480   3.790   3.815  1.00  0.00     0.243 S 
ATOM      8  O   UNL     1       8.665   4.827   4.856  1.00  0.00    -0.207 OA
ATOM      9  O   UNL     1       9.738   3.789   2.962  1.00  0.00    -0.207 OA
BRANCH   7  10
ATOM     10  C   UNL     1       7.119   4.172   2.760  1.00  0.00     0.082 A 
ATOM     11  C   UNL     1       6.250   4.754   0.644  1.00  0.00    -0.050 A 
ATOM     12  C   UNL     1       4.978   4.751   1.187  1.00  0.00     0.003 A 
ATOM     13  C   UNL     1       7.355   4.464   1.419  1.00  0.00     0.025 A 
ATOM     14  C   UNL     1       4.753   4.461   2.517  1.00  0.00     0.002 A 
ATOM     15  C   UNL     1       5.851   4.168   3.302  1.00  0.00     0.022 A 
ATOM     16  C   UNL     1       6.401   5.081  -0.812  1.00  0.00     0.044 C 
ENDBRANCH   7  10
ENDBRANCH   1   7
BRANCH   4  17
ATOM     17  S   UNL     1       8.457   0.100   0.706  1.00  0.00     0.243 S 
ATOM     18  O   UNL     1       9.675  -0.798   0.790  1.00  0.00    -0.207 OA
ATOM     19  O   UNL     1       7.210  -0.704   0.542  1.00  0.00    -0.207 OA
BRANCH  17  20
ATOM     20  C   UNL     1       8.637   1.124  -0.711  1.00  0.00     0.086 A 
ATOM     21  C   UNL     1       8.295   0.567  -1.939  1.00  0.00     0.026 A 
ATOM     22  C   UNL     1       9.095   2.422  -0.632  1.00  0.00     0.072 A 
ATOM     23  C   UNL     1       8.396   1.275  -3.120  1.00  0.00     0.052 A 
ATOM     24  C   UNL     1       9.192   3.126  -1.816  1.00  0.00     0.162 A 
ATOM     25  C   UNL     1       8.851   2.571  -3.043  1.00  0.00     0.161 A 
ATOM     26  O   UNL     1       9.643   4.436  -1.824  1.00  0.00    -0.486 OA
ATOM     27  O   UNL     1       8.954   3.289  -4.226  1.00  0.00    -0.486 OA
ATOM     28  C   UNL     1       9.361   5.265  -2.943  1.00  0.00     0.271 C 
ATOM     29  C   UNL     1       9.738   4.473  -4.194  1.00  0.00     0.271 C 
ENDBRANCH  17  20
ENDBRANCH   4  17
TORSDOF 4
ENDMDL
MODEL 2
REMARK VINA RESULT:       0.1      3.125      5.710
REMARK SMILES Cc1cccc(S(=O)(=O)N2CCN(S(=O)(=O)c3ccc4c(c3)OCCO4)CC2)c1
REMARK SMILES IDX 10 1 11 2 12 3 13 4 27 5 28 6 7 7 8 8 9 9 6 10 2 11 3 12
REMARK SMILES IDX 29 13 4 14 5 15 1 16 14 17 15 18 16 19 17 20 18 21 22 22
REMARK SMILES IDX 19 23 21 24 20 25 23 26 26 27 24 28 25 29
REMARK H PARENT
ROOT
ATOM      1  N   UNL     1       5.695   5.539  -0.329  1.00  0.00    -0.195 NA
ATOM      2  C   UNL     1       6.895   5.455   0.438  1.00  0.00     0.119 C 
ATOM      3  C   UNL     1       7.527   4.100   0.384  1.00  0.00     0.119 C 
ATOM      4  N   UNL     1       7.159   3.453  -0.839  1.00  0.00    -0.195 NA
ATOM      5  C   UNL     1       7.051   4.406  -1.932  1.00  0.00     0.119 C 
ATOM      6  C   UNL     1       5.883   5.347  -1.737  1.00  0.00     0.119 C 
ENDROOT
BRANCH   1   7
ATOM      7  S   UNL     1       4.431   4.638   0.370  1.00  0.00     0.243 S 
ATOM      8  O   UNL     1       4.383   4.737   1.846  1.00  0.00    -0.207 OA
ATOM      9  O   UNL     1       3.102   5.156  -0.154  1.00  0.00    -0.207 OA
BRANCH   7  10
ATOM     10  C   UNL     1       4.598   2.963  -0.158  1.00  0.00     0.082 A 
ATOM     11  C   UNL     1       4.886   0.669   0.318  1.00  0.00    -0.050 A 
ATOM     12  C   UNL     1       4.848   0.402  -1.039  1.00  0.00     0.003 A 
ATOM     13  C   UNL     1       4.762   1.960   0.793  1.00  0.00     0.025 A 
ATOM     14  C   UNL     1       4.685   1.402  -1.974  1.00  0.00     0.002 A 
ATOM     15  C   UNL     1       4.559   2.698  -1.511  1.00  0.00     0.022 A 
ATOM     16  C   UNL     1       5.067  -0.480   1.265  1.00  0.00     0.044 C 
ENDBRANCH   7  10
ENDBRANCH   1   7
BRANCH   4  17
ATOM     17  S   UNL     1       8.273   2.209  -1.250  1.00  0.00     0.243 S 
ATOM     18  O   UNL     1       7.620   1.306  -2.277  1.00  0.00    -0.207 OA
ATOM     19  O   UNL     1       9.549   2.782  -1.776  1.00  0.00    -0.207 OA
BRANCH  17  20
ATOM     20  C   UNL     1       8.654   1.234   0.162  1.00  0.00     0.086 A 
ATOM     21  C   UNL     1       9.382   0.070  -0.053  1.00  0.00     0.026 A 
ATOM     22  C   UNL     1       8.257   1.590   1.434  1.00  0.00     0.072 A 
ATOM     23  C   UNL     1       9.739  -0.775   0.979  1.00  0.00     0.052 A 
ATOM     24  C   UNL     1       8.618   0.742   2.463  1.00  0.00     0.162 A 
ATOM     25  C   UNL     1       9.345  -0.422   2.250  1.00  0.00     0.161 A 
ATOM     26  O   UNL     1       8.259   1.027   3.771  1.00  0.00    -0.486 OA
ATOM     27  O   UNL     1       9.701  -1.265   3.293  1.00  0.00    -0.486 OA
ATOM     28  C   UNL     1       8.956   0.399   4.838  1.00  0.00     0.271 C 
ATOM     29  C   UNL     1       9.011  -1.094   4.522  1.00  0.00     0.271 C 
ENDBRANCH  17  20
ENDBRANCH   4  17
TORSDOF 4
ENDMDL
MODEL 3
REMARK VINA RESULT:       0.2      3.113      5.461
REMARK SMILES Cc1cccc(S(=O)(=O)N2CCN(S(=O)(=O)c3ccc4c(c3)OCCO4)CC2)c1
REMARK SMILES IDX 10 1 11 2 12 3 13 4 27 5 28 6 7 7 8 8 9 9 6 10 2 11 3 12
REMARK SMILES IDX 29 13 4 14 5 15 1 16 14 17 15 18 16 19 17 20 18 21 22 22
REMARK SMILES IDX 19 23 21 24 20 25 23 26 26 27 24 28 25 29
REMARK H PARENT
ROOT
ATOM      1  N   UNL     1       4.175  -0.263  -0.887  1.00  0.00    -0.195 NA
ATOM      2  C   UNL     1       5.460   0.332  -1.065  1.00  0.00     0.119 C 
ATOM      3  C   UNL     1       6.203   0.512   0.221  1.00  0.00     0.119 C 
ATOM      4  N   UNL     1       5.754  -0.464   1.167  1.00  0.00    -0.195 NA
ATOM      5  C   UNL     1       5.432  -1.725   0.518  1.00  0.00     0.119 C 
ATOM      6  C   UNL     1       4.214  -1.598  -0.368  1.00  0.00     0.119 C 
ENDROOT
BRANCH   1   7
ATOM      7  S   UNL     1       3.091   0.793  -0.108  1.00  0.00     0.243 S 
ATOM      8  O   UNL     1       1.755   0.843  -0.746  1.00  0.00    -0.207 OA
ATOM      9  O   UNL     1       2.882   0.325   1.322  1.00  0.00    -0.207 OA
BRANCH   7  10
ATOM     10  C   UNL     1       3.835   2.392  -0.045  1.00  0.00     0.082 A 
ATOM     11  C   UNL     1       4.718   4.208   1.176  1.00  0.00    -0.050 A 
ATOM     12  C   UNL     1       4.980   4.858  -0.016  1.00  0.00     0.003 A 
ATOM     13  C   UNL     1       4.137   2.955   1.192  1.00  0.00     0.025 A 
ATOM     14  C   UNL     1       4.678   4.291  -1.237  1.00  0.00     0.002 A 
ATOM     15  C   UNL     1       4.096   3.038  -1.234  1.00  0.00     0.022 A 
ATOM     16  C   UNL     1       5.081   4.898   2.458  1.00  0.00     0.044 C 
ENDBRANCH   7  10
ENDBRANCH   1   7
BRANCH   4  17
ATOM     17  S   UNL     1       6.922  -0.720   2.405  1.00  0.00     0.243 S 
ATOM     18  O   UNL     1       6.208  -1.259   3.628  1.00  0.00    -0.207 OA
ATOM     19  O   UNL     1       7.989  -1.661   1.950  1.00  0.00    -0.207 OA
BRANCH  17  20
ATOM     20  C   UNL     1       7.687   0.799   2.850  1.00  0.00     0.086 A 
ATOM     21  C   UNL     1       8.208   0.888   4.137  1.00  0.00     0.026 A 
ATOM     22  C   UNL     1       7.777   1.864   1.980  1.00  0.00     0.072 A 
ATOM     23  C   UNL     1       8.831   2.031   4.598  1.00  0.00     0.052 A 
ATOM     24  C   UNL     1       8.402   3.004   2.447  1.00  0.00     0.162 A 
ATOM     25  C   UNL     1       8.922   3.096   3.731  1.00  0.00     0.161 A 
ATOM     26  O   UNL     1       8.534   4.119   1.635  1.00  0.00    -0.486 OA
ATOM     27  O   UNL     1       9.548   4.247   4.188  1.00  0.00    -0.486 OA
ATOM     28  C   UNL     1       9.504   5.106   1.958  1.00  0.00     0.271 C 
ATOM     29  C   UNL     1       9.334   5.435   3.440  1.00  0.00     0.271 C 
ENDBRANCH  17  20
ENDBRANCH   4  17
TORSDOF 4
ENDMDL
MODEL 4
REMARK VINA RESULT:       1.6      2.939      6.525
REMARK SMILES Cc1cccc(S(=O)(=O)N2CCN(S(=O)(=O)c3ccc4c(c3)OCCO4)CC2)c1
REMARK SMILES IDX 10 1 11 2 12 3 13 4 27 5 28 6 7 7 8 8 9 9 6 10 2 11 3 12
REMARK SMILES IDX 29 13 4 14 5 15 1 16 14 17 15 18 16 19 17 20 18 21 22 22
REMARK SMILES IDX 19 23 21 24 20 25 23 26 26 27 24 28 25 29
REMARK H PARENT
ROOT
ATOM      1  N   UNL     1       5.873   4.851  -0.121  1.00  0.00    -0.195 NA
ATOM      2  C   UNL     1       5.174   4.550   1.085  1.00  0.00     0.119 C 
ATOM      3  C   UNL     1       6.055   3.950   2.136  1.00  0.00     0.119 C 
ATOM      4  N   UNL     1       7.404   4.383   1.926  1.00  0.00    -0.195 NA
ATOM      5  C   UNL     1       7.453   5.747   1.426  1.00  0.00     0.119 C 
ATOM      6  C   UNL     1       6.894   5.846   0.024  1.00  0.00     0.119 C 
ENDROOT
BRANCH   1   7
ATOM      7  S   UNL     1       6.340   3.440  -0.952  1.00  0.00     0.243 S 
ATOM      8  O   UNL     1       6.632   3.669  -2.385  1.00  0.00    -0.207 OA
ATOM      9  O   UNL     1       7.609   2.890  -0.323  1.00  0.00    -0.207 OA
BRANCH   7  10
ATOM     10  C   UNL     1       5.071   2.234  -0.737  1.00  0.00     0.082 A 
ATOM     11  C   UNL     1       4.343   0.117   0.012  1.00  0.00    -0.050 A 
ATOM     12  C   UNL     1       3.069   0.418  -0.435  1.00  0.00     0.003 A 
ATOM     13  C   UNL     1       5.379   1.020  -0.128  1.00  0.00     0.025 A 
ATOM     14  C   UNL     1       2.774   1.623  -1.037  1.00  0.00     0.002 A 
ATOM     15  C   UNL     1       3.801   2.535  -1.183  1.00  0.00     0.022 A 
ATOM     16  C   UNL     1       4.575  -1.218   0.656  1.00  0.00     0.044 C 
ENDBRANCH   7  10
ENDBRANCH   1   7
BRANCH   4  17
ATOM     17  S   UNL     1       8.336   4.250   3.366  1.00  0.00     0.243 S 
ATOM     18  O   UNL     1       9.739   4.741   3.071  1.00  0.00    -0.207 OA
ATOM     19  O   UNL     1       7.719   5.032   4.479  1.00  0.00    -0.207 OA
BRANCH  17  20
ATOM     20  C   UNL     1       8.445   2.571   3.873  1.00  0.00     0.086 A 
ATOM     21  C   UNL     1       9.548   2.216   4.644  1.00  0.00     0.026 A 
ATOM     22  C   UNL     1       7.494   1.633   3.534  1.00  0.00     0.072 A 
ATOM     23  C   UNL     1       9.740   0.927   5.099  1.00  0.00     0.052 A 
ATOM     24  C   UNL     1       7.692   0.345   3.993  1.00  0.00     0.162 A 
ATOM     25  C   UNL     1       8.791  -0.011   4.763  1.00  0.00     0.161 A 
ATOM     26  O   UNL     1       6.782  -0.657   3.697  1.00  0.00    -0.486 OA
ATOM     27  O   UNL     1       8.978  -1.309   5.217  1.00  0.00    -0.486 OA
ATOM     28  C   UNL     1       6.766  -1.841   4.484  1.00  0.00     0.271 C 
ATOM     29  C   UNL     1       8.210  -2.327   4.592  1.00  0.00     0.271 C 
ENDBRANCH  17  20
ENDBRANCH   4  17
TORSDOF 4
ENDMDL
MODEL 5
REMARK VINA RESULT:       2.1      2.612      4.940
REMARK SMILES Cc1cccc(S(=O)(=O)N2CCN(S(=O)(=O)c3ccc4c(c3)OCCO4)CC2)c1
REMARK SMILES IDX 10 1 11 2 12 3 13 4 27 5 28 6 7 7 8 8 9 9 6 10 2 11 3 12
REMARK SMILES IDX 29 13 4 14 5 15 1 16 14 17 15 18 16 19 17 20 18 21 22 22
REMARK SMILES IDX 19 23 21 24 20 25 23 26 26 27 24 28 25 29
REMARK H PARENT
ROOT
ATOM      1  N   UNL     1       8.309  -1.156   3.142  1.00  0.00    -0.195 NA
ATOM      2  C   UNL     1       9.003  -0.500   2.082  1.00  0.00     0.119 C 
ATOM      3  C   UNL     1       8.627   0.941   1.943  1.00  0.00     0.119 C 
ATOM      4  N   UNL     1       8.181   1.438   3.209  1.00  0.00    -0.195 NA
ATOM      5  C   UNL     1       8.920   0.834   4.307  1.00  0.00     0.119 C 
ATOM      6  C   UNL     1       8.605  -0.638   4.446  1.00  0.00     0.119 C 
ENDROOT
BRANCH   1   7
ATOM      7  S   UNL     1       6.656  -1.354   2.791  1.00  0.00     0.243 S 
ATOM      8  O   UNL     1       6.217  -2.768   2.795  1.00  0.00    -0.207 OA
ATOM      9  O   UNL     1       5.834  -0.631   3.845  1.00  0.00    -0.207 OA
BRANCH   7  10
ATOM     10  C   UNL     1       6.331  -0.583   1.238  1.00  0.00     0.082 A 
ATOM     11  C   UNL     1       4.824   0.173  -0.414  1.00  0.00    -0.050 A 
ATOM     12  C   UNL     1       5.899   0.614  -1.165  1.00  0.00     0.003 A 
ATOM     13  C   UNL     1       5.014  -0.439   0.810  1.00  0.00     0.025 A 
ATOM     14  C   UNL     1       7.200   0.467  -0.733  1.00  0.00     0.002 A 
ATOM     15  C   UNL     1       7.403  -0.143   0.490  1.00  0.00     0.022 A 
ATOM     16  C   UNL     1       3.442   0.374  -0.962  1.00  0.00     0.044 C 
ENDBRANCH   7  10
ENDBRANCH   1   7
BRANCH   4  17
ATOM     17  S   UNL     1       8.307   3.153   3.289  1.00  0.00     0.243 S 
ATOM     18  O   UNL     1       7.640   3.619   4.567  1.00  0.00    -0.207 OA
ATOM     19  O   UNL     1       9.733   3.590   3.238  1.00  0.00    -0.207 OA
BRANCH  17  20
ATOM     20  C   UNL     1       7.460   3.892   1.937  1.00  0.00     0.086 A 
ATOM     21  C   UNL     1       8.066   4.993   1.340  1.00  0.00     0.026 A 
ATOM     22  C   UNL     1       6.251   3.420   1.474  1.00  0.00     0.072 A 
ATOM     23  C   UNL     1       7.495   5.655   0.272  1.00  0.00     0.052 A 
ATOM     24  C   UNL     1       5.685   4.086   0.405  1.00  0.00     0.162 A 
ATOM     25  C   UNL     1       6.288   5.185  -0.192  1.00  0.00     0.161 A 
ATOM     26  O   UNL     1       4.471   3.674  -0.121  1.00  0.00    -0.486 OA
ATOM     27  O   UNL     1       5.709   5.846  -1.266  1.00  0.00    -0.486 OA
ATOM     28  C   UNL     1       4.103   4.083  -1.431  1.00  0.00     0.271 C 
ATOM     29  C   UNL     1       4.334   5.591  -1.513  1.00  0.00     0.271 C 
ENDBRANCH  17  20
ENDBRANCH   4  17
TORSDOF 4
ENDMDL
MODEL 6
REMARK VINA RESULT:       2.4      2.779      5.419
REMARK SMILES Cc1cccc(S(=O)(=O)N2CCN(S(=O)(=O)c3ccc4c(c3)OCCO4)CC2)c1
REMARK SMILES IDX 10 1 11 2 12 3 13 4 27 5 28 6 7 7 8 8 9 9 6 10 2 11 3 12
REMARK SMILES IDX 29 13 4 14 5 15 1 16 14 17 15 18 16 19 17 20 18 21 22 22
REMARK SMILES IDX 19 23 21 24 20 25 23 26 26 27 24 28 25 29
REMARK H PARENT
ROOT
ATOM      1  N   UNL     1       4.320   0.237   1.455  1.00  0.00    -0.195 NA
ATOM      2  C   UNL     1       4.649   1.115   2.530  1.00  0.00     0.119 C 
ATOM      3  C   UNL     1       5.388   2.336   2.081  1.00  0.00     0.119 C 
ATOM      4  N   UNL     1       5.049   2.620   0.719  1.00  0.00    -0.195 NA
ATOM      5  C   UNL     1       3.661   2.291   0.437  1.00  0.00     0.119 C 
ATOM      6  C   UNL     1       3.421   0.800   0.491  1.00  0.00     0.119 C 
ENDROOT
BRANCH   1   7
ATOM      7  S   UNL     1       5.702  -0.521   0.811  1.00  0.00     0.243 S 
ATOM      8  O   UNL     1       5.393  -1.721   0.000  1.00  0.00    -0.207 OA
ATOM      9  O   UNL     1       6.425   0.456  -0.101  1.00  0.00    -0.207 OA
BRANCH   7  10
ATOM     10  C   UNL     1       6.787  -0.907   2.147  1.00  0.00     0.082 A 
ATOM     11  C   UNL     1       8.596  -2.125   3.049  1.00  0.00    -0.050 A 
ATOM     12  C   UNL     1       8.425  -1.455   4.247  1.00  0.00     0.003 A 
ATOM     13  C   UNL     1       7.778  -1.867   1.966  1.00  0.00     0.025 A 
ATOM     14  C   UNL     1       7.440  -0.505   4.417  1.00  0.00     0.002 A 
ATOM     15  C   UNL     1       6.616  -0.238   3.341  1.00  0.00     0.022 A 
ATOM     16  C   UNL     1       9.694  -3.143   2.953  1.00  0.00     0.044 C 
ENDBRANCH   7  10
ENDBRANCH   1   7
BRANCH   4  17
ATOM     17  S   UNL     1       5.355   4.268   0.329  1.00  0.00     0.243 S 
ATOM     18  O   UNL     1       4.092   4.857  -0.268  1.00  0.00    -0.207 OA
ATOM     19  O   UNL     1       5.785   5.035   1.536  1.00  0.00    -0.207 OA
BRANCH  17  20
ATOM     20  C   UNL     1       6.629   4.386  -0.876  1.00  0.00     0.086 A 
ATOM     21  C   UNL     1       7.373   5.561  -0.893  1.00  0.00     0.026 A 
ATOM     22  C   UNL     1       6.894   3.374  -1.773  1.00  0.00     0.072 A 
ATOM     23  C   UNL     1       8.399   5.767  -1.794  1.00  0.00     0.052 A 
ATOM     24  C   UNL     1       7.922   3.586  -2.672  1.00  0.00     0.162 A 
ATOM     25  C   UNL     1       8.666   4.758  -2.690  1.00  0.00     0.161 A 
ATOM     26  O   UNL     1       8.253   2.617  -3.606  1.00  0.00    -0.486 OA
ATOM     27  O   UNL     1       9.696   4.958  -3.598  1.00  0.00    -0.486 OA
ATOM     28  C   UNL     1       9.528   2.660  -4.234  1.00  0.00     0.271 C 
ATOM     29  C   UNL     1       9.740   4.091  -4.723  1.00  0.00     0.271 C 
ENDBRANCH  17  20
ENDBRANCH   4  17
TORSDOF 4
ENDMDL
