MODEL 1
REMARK VINA RESULT:      33.7      0.000      0.000
REMARK SMILES CC12CCCC(=O)C1C1C(=O)CC3C4(C)CCC(=O)C(C)(C)C4CCC3(C)C1(COC(=O)C1CCCCC1C(=O)O)CC2
REMARK SMILES IDX 31 1 32 2 30 3 29 4 28 5 2 6 3 7 8 8 43 9 4 10 6 11 9 12
REMARK SMILES IDX 42 13 5 14 10 15 12 16 26 17 13 18 25 19 14 20 24 21 16 22
REMARK SMILES IDX 23 23 17 24 20 25 18 26 1 27 7 28 11 29 27 30 15 31 21 32
REMARK SMILES IDX 22 33 19 34 33 35 34 36 38 37 35 38 37 39 36 40 39 41 40 42
REMARK SMILES IDX 41 43
REMARK H PARENT 41 44
ROOT
ATOM      1  C   UNL     1       3.637   1.993  -1.345  1.00  0.00     0.309 C 
ATOM      2  O   UNL     1       4.053   2.618  -2.406  1.00  0.00    -0.252 OA
ENDROOT
BRANCH   1   3
ATOM      3  O   UNL     1       4.228   2.436  -0.178  1.00  0.00    -0.465 OA
BRANCH   3   4
ATOM      4  C   UNL     1       5.133   3.476  -0.098  1.00  0.00     0.241 C 
BRANCH   4   5
ATOM      5  C   UNL     1       6.565   3.179   0.221  1.00  0.00     0.021 C 
ATOM      6  C   UNL     1       7.352   5.126  -1.858  1.00  0.00    -0.022 C 
ATOM      7  C   UNL     1       8.702   5.821  -2.128  1.00  0.00     0.008 C 
ATOM      8  C   UNL     1       7.492   3.658  -2.107  1.00  0.00     0.073 C 
ATOM      9  C   UNL     1       6.947   5.540  -0.481  1.00  0.00     0.008 C 
ATOM     10  C   UNL     1       9.133   5.655  -3.556  1.00  0.00     0.008 C 
ATOM     11  C   UNL     1       8.829   3.443  -2.704  1.00  0.00     0.137 C 
ATOM     12  C   UNL     1       7.137   2.661  -1.123  1.00  0.00     0.077 C 
ATOM     13  C   UNL     1       7.392   4.413   0.442  1.00  0.00     0.012 C 
ATOM     14  C   UNL     1       9.099   4.187  -3.997  1.00  0.00     0.076 C 
ATOM     15  C   UNL     1       8.171   1.611  -0.896  1.00  0.00     0.137 C 
ATOM     16  C   UNL     1       8.964   1.651   0.337  1.00  0.00     0.080 C 
ATOM     17  C   UNL     1       6.689   2.170   1.323  1.00  0.00    -0.019 C 
ATOM     18  C   UNL     1       8.085   1.663   1.579  1.00  0.00     0.009 C 
ATOM     19  C   UNL     1       5.700   1.043   1.087  1.00  0.00     0.008 C 
ATOM     20  C   UNL     1       8.229   0.352   2.250  1.00  0.00    -0.025 C 
ATOM     21  C   UNL     1       6.037  -0.275   1.690  1.00  0.00     0.006 C 
ATOM     22  C   UNL     1       9.198   0.474   3.440  1.00  0.00     0.015 C 
ATOM     23  C   UNL     1       6.951  -0.186   2.868  1.00  0.00     0.008 C 
ATOM     24  C   UNL     1       9.604  -0.843   3.997  1.00  0.00     0.077 C 
ATOM     25  C   UNL     1       7.059  -1.381   3.705  1.00  0.00     0.027 C 
ATOM     26  C   UNL     1       8.394  -1.595   4.349  1.00  0.00     0.138 C 
ATOM     27  C   UNL     1       6.437   5.833  -2.836  1.00  0.00     0.012 C 
ATOM     28  O   UNL     1       9.722   2.759  -2.295  1.00  0.00    -0.299 OA
ATOM     29  O   UNL     1       8.313   0.735  -1.772  1.00  0.00    -0.299 OA
ATOM     30  C   UNL     1       6.218   2.885   2.578  1.00  0.00     0.012 C 
ATOM     31  C   UNL     1       8.808  -0.769   1.430  1.00  0.00     0.012 C 
ATOM     32  C   UNL     1       6.149  -1.219   4.949  1.00  0.00     0.020 C 
ATOM     33  C   UNL     1       6.624  -2.691   3.120  1.00  0.00     0.020 C 
ATOM     34  O   UNL     1       8.478  -2.446   5.218  1.00  0.00    -0.299 OA
ENDBRANCH   4   5
ENDBRANCH   3   4
ENDBRANCH   1   3
BRANCH   1  35
ATOM     35  C   UNL     1       2.646   0.954  -1.502  1.00  0.00     0.113 C 
ATOM     36  C   UNL     1       1.217   1.462  -1.494  1.00  0.00     0.016 C 
ATOM     37  C   UNL     1       2.732  -0.247  -0.637  1.00  0.00     0.113 C 
ATOM     38  C   UNL     1       0.325   0.360  -1.970  1.00  0.00     0.001 C 
ATOM     39  C   UNL     1       2.030  -1.397  -1.366  1.00  0.00     0.016 C 
ATOM     40  C   UNL     1       1.051  -0.902  -2.377  1.00  0.00     0.001 C 
BRANCH  37  41
ATOM     41  C   UNL     1       2.232  -0.118   0.733  1.00  0.00     0.307 C 
ATOM     42  O   UNL     1       2.394  -1.101   1.536  1.00  0.00    -0.252 OA
BRANCH  41  43
ATOM     43  O   UNL     1       1.588   0.982   1.258  1.00  0.00    -0.481 OA
ATOM     44  H   UNL     1       2.014   1.876   1.470  1.00  0.00     0.296 HD
ENDBRANCH  41  43
ENDBRANCH  37  41
ENDBRANCH   1  35
TORSDOF 6
ENDMDL
