MODEL 1
REMARK VINA RESULT:      -4.1      0.000      0.000
REMARK SMILES CCC(CO)N=c1[nH]c(=NC)[nH]c(=NC)[nH]1
REMARK SMILES IDX 3 1 2 2 1 3 4 4 5 5 6 7 7 8 8 9 16 10 9 11 13 12 12 13 10 17
REMARK SMILES IDX 11 18 14 19 15 20
REMARK H PARENT 5 6 8 14 16 15 12 16
ROOT
ATOM      1  C   UNL     1       5.398   0.314   1.463  1.00  0.00     0.134 C 
ENDROOT
BRANCH   1   2
ATOM      2  C   UNL     1       5.002  -0.629   0.330  1.00  0.00     0.026 C 
ATOM      3  C   UNL     1       3.757  -0.059  -0.312  1.00  0.00     0.006 C 
ENDBRANCH   1   2
BRANCH   1   4
ATOM      4  C   UNL     1       6.344  -0.443   2.378  1.00  0.00     0.183 C 
BRANCH   4   5
ATOM      5  O   UNL     1       6.633  -1.688   1.775  1.00  0.00    -0.394 OA
ATOM      6  H   UNL     1       7.565  -1.708   1.418  1.00  0.00     0.210 HD
ENDBRANCH   4   5
ENDBRANCH   1   4
BRANCH   1   7
ATOM      7  N   UNL     1       6.017   1.498   0.927  1.00  0.00    -0.247 NA
BRANCH   7   8
ATOM      8  C   UNL     1       5.733   2.650   1.367  1.00  0.00     0.205 A 
ATOM      9  N   UNL     1       6.090   3.164   2.550  1.00  0.00    -0.296 N 
ATOM     10  N   UNL     1       4.986   3.455   0.561  1.00  0.00    -0.296 N 
ATOM     11  C   UNL     1       5.749   4.403   2.954  1.00  0.00     0.204 A 
ATOM     12  C   UNL     1       4.629   4.703   0.940  1.00  0.00     0.204 A 
ATOM     13  N   UNL     1       5.012   5.177   2.140  1.00  0.00    -0.296 N 
ATOM     14  H   UNL     1       6.660   2.594   3.205  1.00  0.00     0.173 HD
ATOM     15  H   UNL     1       4.677   3.092  -0.388  1.00  0.00     0.173 HD
ATOM     16  H   UNL     1       4.742   6.124   2.427  1.00  0.00     0.173 HD
BRANCH  11  17
ATOM     17  N   UNL     1       6.137   4.821   4.113  1.00  0.00    -0.256 NA
ATOM     18  C   UNL     1       7.495   4.955   4.535  1.00  0.00     0.175 C 
ENDBRANCH  11  17
BRANCH  12  19
ATOM     19  N   UNL     1       3.920   5.382   0.099  1.00  0.00    -0.256 NA
ATOM     20  C   UNL     1       4.250   5.214  -1.305  1.00  0.00     0.175 C 
ENDBRANCH  12  19
ENDBRANCH   7   8
ENDBRANCH   1   7
TORSDOF 7
ENDMDL
MODEL 2
REMARK VINA RESULT:      -4.0      2.594      4.192
REMARK SMILES CCC(CO)N=c1[nH]c(=NC)[nH]c(=NC)[nH]1
REMARK SMILES IDX 3 1 2 2 1 3 4 4 5 5 6 7 7 8 8 9 16 10 9 11 13 12 12 13 10 17
REMARK SMILES IDX 11 18 14 19 15 20
REMARK H PARENT 5 6 8 14 16 15 12 16
ROOT
ATOM      1  C   UNL     1       4.988   0.253  -0.969  1.00  0.00     0.134 C 
ENDROOT
BRANCH   1   2
ATOM      2  C   UNL     1       4.258  -0.475   0.155  1.00  0.00     0.026 C 
ATOM      3  C   UNL     1       3.168   0.448   0.652  1.00  0.00     0.006 C 
ENDBRANCH   1   2
BRANCH   1   4
ATOM      4  C   UNL     1       4.338   1.617  -1.129  1.00  0.00     0.183 C 
BRANCH   4   5
ATOM      5  O   UNL     1       5.293   2.492  -1.695  1.00  0.00    -0.394 OA
ATOM      6  H   UNL     1       5.418   3.303  -1.127  1.00  0.00     0.210 HD
ENDBRANCH   4   5
ENDBRANCH   1   4
BRANCH   1   7
ATOM      7  N   UNL     1       6.388   0.370  -0.654  1.00  0.00    -0.247 NA
BRANCH   7   8
ATOM      8  C   UNL     1       6.790   0.478   0.541  1.00  0.00     0.205 A 
ATOM      9  N   UNL     1       7.447  -0.447   1.250  1.00  0.00    -0.296 N 
ATOM     10  N   UNL     1       6.531   1.654   1.178  1.00  0.00    -0.296 N 
ATOM     11  C   UNL     1       7.845  -0.262   2.524  1.00  0.00     0.204 A 
ATOM     12  C   UNL     1       6.918   1.868   2.456  1.00  0.00     0.204 A 
ATOM     13  N   UNL     1       7.577   0.907   3.130  1.00  0.00    -0.296 N 
ATOM     14  H   UNL     1       7.671  -1.363   0.814  1.00  0.00     0.173 HD
ATOM     15  H   UNL     1       6.011   2.420   0.658  1.00  0.00     0.173 HD
ATOM     16  H   UNL     1       7.871   1.069   4.099  1.00  0.00     0.173 HD
BRANCH  11  17
ATOM     17  N   UNL     1       8.475  -1.209   3.135  1.00  0.00    -0.256 NA
ATOM     18  C   UNL     1       9.563  -1.032   4.044  1.00  0.00     0.175 C 
ENDBRANCH  11  17
BRANCH  12  19
ATOM     19  N   UNL     1       6.621   3.018   2.966  1.00  0.00    -0.256 NA
ATOM     20  C   UNL     1       5.743   3.864   2.177  1.00  0.00     0.175 C 
ENDBRANCH  12  19
ENDBRANCH   7   8
ENDBRANCH   1   7
TORSDOF 7
ENDMDL
MODEL 3
REMARK VINA RESULT:      -4.0      2.723      4.445
REMARK SMILES CCC(CO)N=c1[nH]c(=NC)[nH]c(=NC)[nH]1
REMARK SMILES IDX 3 1 2 2 1 3 4 4 5 5 6 7 7 8 8 9 16 10 9 11 13 12 12 13 10 17
REMARK SMILES IDX 11 18 14 19 15 20
REMARK H PARENT 5 6 8 14 16 15 12 16
ROOT
ATOM      1  C   UNL     1       5.508  -0.173   0.428  1.00  0.00     0.134 C 
ENDROOT
BRANCH   1   2
ATOM      2  C   UNL     1       4.105  -0.475  -0.091  1.00  0.00     0.026 C 
ATOM      3  C   UNL     1       3.619   0.761  -0.813  1.00  0.00     0.006 C 
ENDBRANCH   1   2
BRANCH   1   4
ATOM      4  C   UNL     1       6.297   0.437  -0.718  1.00  0.00     0.183 C 
BRANCH   4   5
ATOM      5  O   UNL     1       7.532  -0.245  -0.808  1.00  0.00    -0.394 OA
ATOM      6  H   UNL     1       7.768  -0.437  -1.759  1.00  0.00     0.210 HD
ENDBRANCH   4   5
ENDBRANCH   1   4
BRANCH   1   7
ATOM      7  N   UNL     1       5.436   0.721   1.554  1.00  0.00    -0.247 NA
BRANCH   7   8
ATOM      8  C   UNL     1       6.425   0.894   2.325  1.00  0.00     0.205 A 
ATOM      9  N   UNL     1       6.775   2.035   2.929  1.00  0.00    -0.296 N 
ATOM     10  N   UNL     1       7.219  -0.185   2.567  1.00  0.00    -0.296 N 
ATOM     11  C   UNL     1       7.847   2.146   3.739  1.00  0.00     0.204 A 
ATOM     12  C   UNL     1       8.299  -0.104   3.375  1.00  0.00     0.204 A 
ATOM     13  N   UNL     1       8.613   1.066   3.962  1.00  0.00    -0.296 N 
ATOM     14  H   UNL     1       6.206   2.891   2.780  1.00  0.00     0.173 HD
ATOM     15  H   UNL     1       6.982  -1.114   2.109  1.00  0.00     0.173 HD
ATOM     16  H   UNL     1       9.433   1.129   4.576  1.00  0.00     0.173 HD
BRANCH  11  17
ATOM     17  N   UNL     1       8.113   3.287   4.284  1.00  0.00    -0.256 NA
ATOM     18  C   UNL     1       7.285   4.450   4.223  1.00  0.00     0.175 C 
ENDBRANCH  11  17
BRANCH  12  19
ATOM     19  N   UNL     1       8.985  -1.187   3.538  1.00  0.00    -0.256 NA
ATOM     20  C   UNL     1       9.256  -1.962   2.339  1.00  0.00     0.175 C 
ENDBRANCH  12  19
ENDBRANCH   7   8
ENDBRANCH   1   7
TORSDOF 7
ENDMDL
MODEL 4
REMARK VINA RESULT:      -3.9      2.661      4.721
REMARK SMILES CCC(CO)N=c1[nH]c(=NC)[nH]c(=NC)[nH]1
REMARK SMILES IDX 3 1 2 2 1 3 4 4 5 5 6 7 7 8 8 9 16 10 9 11 13 12 12 13 10 17
REMARK SMILES IDX 11 18 14 19 15 20
REMARK H PARENT 5 6 8 14 16 15 12 16
ROOT
ATOM      1  C   UNL     1       4.966   0.221  -0.994  1.00  0.00     0.134 C 
ENDROOT
BRANCH   1   2
ATOM      2  C   UNL     1       4.244  -0.476   0.155  1.00  0.00     0.026 C 
ATOM      3  C   UNL     1       3.174   0.471   0.652  1.00  0.00     0.006 C 
ENDBRANCH   1   2
BRANCH   1   4
ATOM      4  C   UNL     1       4.326   1.587  -1.175  1.00  0.00     0.183 C 
BRANCH   4   5
ATOM      5  O   UNL     1       5.313   2.470  -1.669  1.00  0.00    -0.394 OA
ATOM      6  H   UNL     1       4.935   3.081  -2.362  1.00  0.00     0.210 HD
ENDBRANCH   4   5
ENDBRANCH   1   4
BRANCH   1   7
ATOM      7  N   UNL     1       6.370   0.333  -0.700  1.00  0.00    -0.247 NA
BRANCH   7   8
ATOM      8  C   UNL     1       6.787   0.516   0.481  1.00  0.00     0.205 A 
ATOM      9  N   UNL     1       6.615   1.613   1.228  1.00  0.00    -0.296 N 
ATOM     10  N   UNL     1       7.484  -0.502   1.057  1.00  0.00    -0.296 N 
ATOM     11  C   UNL     1       7.090   1.738   2.482  1.00  0.00     0.204 A 
ATOM     12  C   UNL     1       7.973  -0.405   2.314  1.00  0.00     0.204 A 
ATOM     13  N   UNL     1       7.774   0.719   3.028  1.00  0.00    -0.296 N 
ATOM     14  H   UNL     1       6.091   2.421   0.838  1.00  0.00     0.173 HD
ATOM     15  H   UNL     1       7.648  -1.394   0.504  1.00  0.00     0.173 HD
ATOM     16  H   UNL     1       8.144   0.793   3.982  1.00  0.00     0.173 HD
BRANCH  11  17
ATOM     17  N   UNL     1       6.877   2.833   3.134  1.00  0.00    -0.256 NA
ATOM     18  C   UNL     1       6.221   3.992   2.617  1.00  0.00     0.175 C 
ENDBRANCH  11  17
BRANCH  12  19
ATOM     19  N   UNL     1       8.620  -1.429   2.765  1.00  0.00    -0.256 NA
ATOM     20  C   UNL     1       9.592  -1.165   3.811  1.00  0.00     0.175 C 
ENDBRANCH  12  19
ENDBRANCH   7   8
ENDBRANCH   1   7
TORSDOF 7
ENDMDL
MODEL 5
REMARK VINA RESULT:      -3.9      3.913      5.373
REMARK SMILES CCC(CO)N=c1[nH]c(=NC)[nH]c(=NC)[nH]1
REMARK SMILES IDX 3 1 2 2 1 3 4 4 5 5 6 7 7 8 8 9 16 10 9 11 13 12 12 13 10 17
REMARK SMILES IDX 11 18 14 19 15 20
REMARK H PARENT 5 6 8 14 16 15 12 16
ROOT
ATOM      1  C   UNL     1       4.526   0.493  -1.084  1.00  0.00     0.134 C 
ENDROOT
BRANCH   1   2
ATOM      2  C   UNL     1       3.478  -0.149  -0.180  1.00  0.00     0.026 C 
ATOM      3  C   UNL     1       3.227   0.808   0.964  1.00  0.00     0.006 C 
ENDBRANCH   1   2
BRANCH   1   4
ATOM      4  C   UNL     1       4.691   1.936  -0.639  1.00  0.00     0.183 C 
BRANCH   4   5
ATOM      5  O   UNL     1       5.004   2.711  -1.779  1.00  0.00    -0.394 OA
ATOM      6  H   UNL     1       5.739   2.291  -2.309  1.00  0.00     0.210 HD
ENDBRANCH   4   5
ENDBRANCH   1   4
BRANCH   1   7
ATOM      7  N   UNL     1       5.766  -0.231  -0.994  1.00  0.00    -0.247 NA
BRANCH   7   8
ATOM      8  C   UNL     1       6.839   0.336  -0.635  1.00  0.00     0.205 A 
ATOM      9  N   UNL     1       7.702   0.986  -1.424  1.00  0.00    -0.296 N 
ATOM     10  N   UNL     1       7.156   0.282   0.689  1.00  0.00    -0.296 N 
ATOM     11  C   UNL     1       8.830   1.567  -0.970  1.00  0.00     0.204 A 
ATOM     12  C   UNL     1       8.281   0.856   1.173  1.00  0.00     0.204 A 
ATOM     13  N   UNL     1       9.119   1.500   0.340  1.00  0.00    -0.296 N 
ATOM     14  H   UNL     1       7.511   1.058  -2.443  1.00  0.00     0.173 HD
ATOM     15  H   UNL     1       6.503  -0.224   1.356  1.00  0.00     0.173 HD
ATOM     16  H   UNL     1       9.972   1.936   0.706  1.00  0.00     0.173 HD
BRANCH  11  17
ATOM     17  N   UNL     1       9.608   2.176  -1.802  1.00  0.00    -0.256 NA
ATOM     18  C   UNL     1       9.725   1.883  -3.196  1.00  0.00     0.175 C 
ENDBRANCH  11  17
BRANCH  12  19
ATOM     19  N   UNL     1       8.486   0.746   2.444  1.00  0.00    -0.256 NA
ATOM     20  C   UNL     1       8.604  -0.606   2.962  1.00  0.00     0.175 C 
ENDBRANCH  12  19
ENDBRANCH   7   8
ENDBRANCH   1   7
TORSDOF 7
ENDMDL
MODEL 6
REMARK VINA RESULT:      -3.9      2.139      2.922
REMARK SMILES CCC(CO)N=c1[nH]c(=NC)[nH]c(=NC)[nH]1
REMARK SMILES IDX 3 1 2 2 1 3 4 4 5 5 6 7 7 8 8 9 16 10 9 11 13 12 12 13 10 17
REMARK SMILES IDX 11 18 14 19 15 20
REMARK H PARENT 5 6 8 14 16 15 12 16
ROOT
ATOM      1  C   UNL     1       6.068   0.064   0.642  1.00  0.00     0.134 C 
ENDROOT
BRANCH   1   2
ATOM      2  C   UNL     1       5.039  -0.657  -0.225  1.00  0.00     0.026 C 
ATOM      3  C   UNL     1       3.723   0.069  -0.054  1.00  0.00     0.006 C 
ENDBRANCH   1   2
BRANCH   1   4
ATOM      4  C   UNL     1       7.226   0.461  -0.258  1.00  0.00     0.183 C 
BRANCH   4   5
ATOM      5  O   UNL     1       7.070  -0.211  -1.492  1.00  0.00    -0.394 OA
ATOM      6  H   UNL     1       6.558  -1.060  -1.377  1.00  0.00     0.210 HD
ENDBRANCH   4   5
ENDBRANCH   1   4
BRANCH   1   7
ATOM      7  N   UNL     1       5.468   1.212   1.268  1.00  0.00    -0.247 NA
BRANCH   7   8
ATOM      8  C   UNL     1       6.085   1.886   2.144  1.00  0.00     0.205 A 
ATOM      9  N   UNL     1       6.983   1.423   3.021  1.00  0.00    -0.296 N 
ATOM     10  N   UNL     1       5.812   3.219   2.207  1.00  0.00    -0.296 N 
ATOM     11  C   UNL     1       7.602   2.202   3.930  1.00  0.00     0.204 A 
ATOM     12  C   UNL     1       6.417   4.025   3.109  1.00  0.00     0.204 A 
ATOM     13  N   UNL     1       7.314   3.514   3.972  1.00  0.00    -0.296 N 
ATOM     14  H   UNL     1       7.230   0.414   3.018  1.00  0.00     0.173 HD
ATOM     15  H   UNL     1       5.105   3.634   1.532  1.00  0.00     0.173 HD
ATOM     16  H   UNL     1       7.774   4.125   4.656  1.00  0.00     0.173 HD
BRANCH  11  17
ATOM     17  N   UNL     1       8.457   1.673   4.741  1.00  0.00    -0.256 NA
ATOM     18  C   UNL     1       8.686   0.273   4.908  1.00  0.00     0.175 C 
ENDBRANCH  11  17
BRANCH  12  19
ATOM     19  N   UNL     1       6.084   5.274   3.084  1.00  0.00    -0.256 NA
ATOM     20  C   UNL     1       4.696   5.576   3.383  1.00  0.00     0.175 C 
ENDBRANCH  12  19
ENDBRANCH   7   8
ENDBRANCH   1   7
TORSDOF 7
ENDMDL
MODEL 7
REMARK VINA RESULT:      -3.8      4.292      6.213
REMARK SMILES CCC(CO)N=c1[nH]c(=NC)[nH]c(=NC)[nH]1
REMARK SMILES IDX 3 1 2 2 1 3 4 4 5 5 6 7 7 8 8 9 16 10 9 11 13 12 12 13 10 17
REMARK SMILES IDX 11 18 14 19 15 20
REMARK H PARENT 5 6 8 14 16 15 12 16
ROOT
ATOM      1  C   UNL     1       8.161   2.687  -1.794  1.00  0.00     0.134 C 
ENDROOT
BRANCH   1   2
ATOM      2  C   UNL     1       8.357   3.646  -0.624  1.00  0.00     0.026 C 
ATOM      3  C   UNL     1       8.510   5.035  -1.204  1.00  0.00     0.006 C 
ENDBRANCH   1   2
BRANCH   1   4
ATOM      4  C   UNL     1       9.063   3.154  -2.924  1.00  0.00     0.183 C 
BRANCH   4   5
ATOM      5  O   UNL     1       8.797   2.349  -4.056  1.00  0.00    -0.394 OA
ATOM      6  H   UNL     1       9.329   2.651  -4.844  1.00  0.00     0.210 HD
ENDBRANCH   4   5
ENDBRANCH   1   4
BRANCH   1   7
ATOM      7  N   UNL     1       8.475   1.343  -1.390  1.00  0.00    -0.247 NA
BRANCH   7   8
ATOM      8  C   UNL     1       7.704   0.681  -0.636  1.00  0.00     0.205 A 
ATOM      9  N   UNL     1       6.395   0.472  -0.818  1.00  0.00    -0.296 N 
ATOM     10  N   UNL     1       8.254   0.122   0.478  1.00  0.00    -0.296 N 
ATOM     11  C   UNL     1       5.633  -0.246   0.031  1.00  0.00     0.204 A 
ATOM     12  C   UNL     1       7.515  -0.603   1.347  1.00  0.00     0.204 A 
ATOM     13  N   UNL     1       6.201  -0.786   1.122  1.00  0.00    -0.296 N 
ATOM     14  H   UNL     1       5.922   0.875  -1.651  1.00  0.00     0.173 HD
ATOM     15  H   UNL     1       9.290   0.261   0.667  1.00  0.00     0.173 HD
ATOM     16  H   UNL     1       5.639  -1.337   1.781  1.00  0.00     0.173 HD
BRANCH  11  17
ATOM     17  N   UNL     1       4.376  -0.399  -0.222  1.00  0.00    -0.256 NA
ATOM     18  C   UNL     1       3.313   0.358   0.360  1.00  0.00     0.175 C 
ENDBRANCH  11  17
BRANCH  12  19
ATOM     19  N   UNL     1       8.136  -1.088   2.372  1.00  0.00    -0.256 NA
ATOM     20  C   UNL     1       9.157  -0.242   2.965  1.00  0.00     0.175 C 
ENDBRANCH  12  19
ENDBRANCH   7   8
ENDBRANCH   1   7
TORSDOF 7
ENDMDL
MODEL 8
REMARK VINA RESULT:      -3.8      3.994      4.539
REMARK SMILES CCC(CO)N=c1[nH]c(=NC)[nH]c(=NC)[nH]1
REMARK SMILES IDX 3 1 2 2 1 3 4 4 5 5 6 7 7 8 8 9 16 10 9 11 13 12 12 13 10 17
REMARK SMILES IDX 11 18 14 19 15 20
REMARK H PARENT 5 6 8 14 16 15 12 16
ROOT
ATOM      1  C   UNL     1       4.638   0.349  -0.981  1.00  0.00     0.134 C 
ENDROOT
BRANCH   1   2
ATOM      2  C   UNL     1       3.847  -0.398   0.089  1.00  0.00     0.026 C 
ATOM      3  C   UNL     1       3.035   0.631   0.845  1.00  0.00     0.006 C 
ENDBRANCH   1   2
BRANCH   1   4
ATOM      4  C   UNL     1       4.700   1.810  -0.567  1.00  0.00     0.183 C 
BRANCH   4   5
ATOM      5  O   UNL     1       4.845   2.589  -1.738  1.00  0.00    -0.394 OA
ATOM      6  H   UNL     1       4.247   3.387  -1.715  1.00  0.00     0.210 HD
ENDBRANCH   4   5
ENDBRANCH   1   4
BRANCH   1   7
ATOM      7  N   UNL     1       5.953  -0.219  -1.110  1.00  0.00    -0.247 NA
BRANCH   7   8
ATOM      8  C   UNL     1       6.960   0.309  -0.553  1.00  0.00     0.205 A 
ATOM      9  N   UNL     1       7.420   0.051   0.676  1.00  0.00    -0.296 N 
ATOM     10  N   UNL     1       7.649   1.238  -1.273  1.00  0.00    -0.296 N 
ATOM     11  C   UNL     1       8.502   0.657   1.205  1.00  0.00     0.204 A 
ATOM     12  C   UNL     1       8.737   1.861  -0.768  1.00  0.00     0.204 A 
ATOM     13  N   UNL     1       9.164   1.569   0.474  1.00  0.00    -0.296 N 
ATOM     14  H   UNL     1       6.933  -0.648   1.270  1.00  0.00     0.173 HD
ATOM     15  H   UNL     1       7.322   1.478  -2.254  1.00  0.00     0.173 HD
ATOM     16  H   UNL     1       9.991   2.041   0.858  1.00  0.00     0.173 HD
BRANCH  11  17
ATOM     17  N   UNL     1       8.879   0.347   2.401  1.00  0.00    -0.256 NA
ATOM     18  C   UNL     1       8.309  -0.683   3.211  1.00  0.00     0.175 C 
ENDBRANCH  11  17
BRANCH  12  19
ATOM     19  N   UNL     1       9.317   2.726  -1.534  1.00  0.00    -0.256 NA
ATOM     20  C   UNL     1       9.740   3.963  -0.903  1.00  0.00     0.175 C 
ENDBRANCH  12  19
ENDBRANCH   7   8
ENDBRANCH   1   7
TORSDOF 7
ENDMDL
MODEL 9
REMARK VINA RESULT:      -3.8      2.821      4.437
REMARK SMILES CCC(CO)N=c1[nH]c(=NC)[nH]c(=NC)[nH]1
REMARK SMILES IDX 3 1 2 2 1 3 4 4 5 5 6 7 7 8 8 9 16 10 9 11 13 12 12 13 10 17
REMARK SMILES IDX 11 18 14 19 15 20
REMARK H PARENT 5 6 8 14 16 15 12 16
ROOT
ATOM      1  C   UNL     1       5.034  -0.503   0.020  1.00  0.00     0.134 C 
ENDROOT
BRANCH   1   2
ATOM      2  C   UNL     1       3.778   0.243  -0.419  1.00  0.00     0.026 C 
ATOM      3  C   UNL     1       2.948   0.489   0.821  1.00  0.00     0.006 C 
ENDBRANCH   1   2
BRANCH   1   4
ATOM      4  C   UNL     1       6.219   0.151  -0.671  1.00  0.00     0.183 C 
BRANCH   4   5
ATOM      5  O   UNL     1       5.855   1.476  -1.002  1.00  0.00    -0.394 OA
ATOM      6  H   UNL     1       5.770   1.590  -1.989  1.00  0.00     0.210 HD
ENDBRANCH   4   5
ENDBRANCH   1   4
BRANCH   1   7
ATOM      7  N   UNL     1       5.165  -0.451   1.452  1.00  0.00    -0.247 NA
BRANCH   7   8
ATOM      8  C   UNL     1       6.192   0.040   2.005  1.00  0.00     0.205 A 
ATOM      9  N   UNL     1       7.338  -0.597   2.272  1.00  0.00    -0.296 N 
ATOM     10  N   UNL     1       6.132   1.351   2.370  1.00  0.00    -0.296 N 
ATOM     11  C   UNL     1       8.393  -0.006   2.868  1.00  0.00     0.204 A 
ATOM     12  C   UNL     1       7.174   1.969   2.969  1.00  0.00     0.204 A 
ATOM     13  N   UNL     1       8.308   1.288   3.218  1.00  0.00    -0.296 N 
ATOM     14  H   UNL     1       7.440  -1.598   2.016  1.00  0.00     0.173 HD
ATOM     15  H   UNL     1       5.242   1.900   2.180  1.00  0.00     0.173 HD
ATOM     16  H   UNL     1       9.100   1.756   3.671  1.00  0.00     0.173 HD
BRANCH  11  17
ATOM     17  N   UNL     1       9.463  -0.696   3.088  1.00  0.00    -0.256 NA
ATOM     18  C   UNL     1       9.552  -2.122   3.063  1.00  0.00     0.175 C 
ENDBRANCH  11  17
BRANCH  12  19
ATOM     19  N   UNL     1       7.012   3.215   3.274  1.00  0.00    -0.256 NA
ATOM     20  C   UNL     1       7.848   3.729   4.344  1.00  0.00     0.175 C 
ENDBRANCH  12  19
ENDBRANCH   7   8
ENDBRANCH   1   7
TORSDOF 7
ENDMDL
