MODEL 1
REMARK VINA RESULT:      -4.3      0.000      0.000
REMARK SMILES CN(C)CCN(C)c1nc2ccc(Cl)cc2c(=O)o1
REMARK SMILES IDX 5 1 4 2 2 3 1 4 3 5 6 6 7 7 8 8 9 9 19 10 10 11 17 12 11 13
REMARK SMILES IDX 16 14 12 15 15 16 13 17 18 18 14 19
REMARK H PARENT
ROOT
ATOM      1  C   UNL     1       7.513  -0.954   2.670  1.00  0.00     0.136 C 
ENDROOT
BRANCH   1   2
ATOM      2  C   UNL     1       6.724  -0.090   3.625  1.00  0.00     0.105 C 
BRANCH   2   3
ATOM      3  N   UNL     1       7.480   0.141   4.842  1.00  0.00    -0.308 NA
ATOM      4  C   UNL     1       8.151   1.442   4.787  1.00  0.00     0.105 C 
ATOM      5  C   UNL     1       8.483  -0.905   5.034  1.00  0.00     0.105 C 
ENDBRANCH   2   3
ENDBRANCH   1   2
BRANCH   1   6
ATOM      6  N   UNL     1       8.049  -0.173   1.574  1.00  0.00    -0.328 N 
ATOM      7  C   UNL     1       9.423  -0.241   1.149  1.00  0.00     0.148 C 
BRANCH   6   8
ATOM      8  C   UNL     1       7.148   0.711   0.870  1.00  0.00     0.300 A 
ATOM      9  N   UNL     1       7.339   2.038   0.915  1.00  0.00    -0.196 NA
ATOM     10  O   UNL     1       6.133   0.201   0.180  1.00  0.00    -0.389 OA
ATOM     11  C   UNL     1       6.534   2.896   0.281  1.00  0.00     0.083 A 
ATOM     12  C   UNL     1       5.293   0.966  -0.472  1.00  0.00     0.348 A 
ATOM     13  C   UNL     1       6.712   4.270   0.313  1.00  0.00     0.031 A 
ATOM     14  C   UNL     1       5.472   2.347  -0.439  1.00  0.00     0.087 A 
ATOM     15  C   UNL     1       5.838   5.101  -0.371  1.00  0.00     0.023 A 
ATOM     16  C   UNL     1       4.588   3.163  -1.128  1.00  0.00     0.038 A 
ATOM     17  C   UNL     1       4.802   4.520  -1.069  1.00  0.00     0.042 A 
ATOM     18  O   UNL     1       4.336   0.440  -1.119  1.00  0.00    -0.246 OA
ATOM     19  Cl  UNL     1       3.712   5.615  -1.924  1.00  0.00    -0.084 Cl
ENDBRANCH   6   8
ENDBRANCH   1   6
TORSDOF 4
ENDMDL
MODEL 2
REMARK VINA RESULT:      -3.3      2.770      4.167
REMARK SMILES CN(C)CCN(C)c1nc2ccc(Cl)cc2c(=O)o1
REMARK SMILES IDX 5 1 4 2 2 3 1 4 3 5 6 6 7 7 8 8 9 9 19 10 10 11 17 12 11 13
REMARK SMILES IDX 16 14 12 15 15 16 13 17 18 18 14 19
REMARK H PARENT
ROOT
ATOM      1  C   UNL     1       8.894   2.592   5.156  1.00  0.00     0.136 C 
ENDROOT
BRANCH   1   2
ATOM      2  C   UNL     1       9.739   3.335   4.149  1.00  0.00     0.105 C 
BRANCH   2   3
ATOM      3  N   UNL     1       9.657   4.765   4.376  1.00  0.00    -0.308 NA
ATOM      4  C   UNL     1       8.496   5.085   5.210  1.00  0.00     0.105 C 
ATOM      5  C   UNL     1       9.546   5.485   3.108  1.00  0.00     0.105 C 
ENDBRANCH   2   3
ENDBRANCH   1   2
BRANCH   1   6
ATOM      6  N   UNL     1       8.346   1.376   4.588  1.00  0.00    -0.328 N 
ATOM      7  C   UNL     1       8.673   0.059   5.069  1.00  0.00     0.148 C 
BRANCH   6   8
ATOM      8  C   UNL     1       7.416   1.502   3.489  1.00  0.00     0.300 A 
ATOM      9  N   UNL     1       7.058   0.418   2.785  1.00  0.00    -0.196 NA
ATOM     10  O   UNL     1       6.920   2.696   3.182  1.00  0.00    -0.389 OA
ATOM     11  C   UNL     1       6.202   0.484   1.761  1.00  0.00     0.083 A 
ATOM     12  C   UNL     1       6.075   2.856   2.194  1.00  0.00     0.348 A 
ATOM     13  C   UNL     1       5.818  -0.623   1.020  1.00  0.00     0.031 A 
ATOM     14  C   UNL     1       5.690   1.744   1.449  1.00  0.00     0.087 A 
ATOM     15  C   UNL     1       4.923  -0.481  -0.029  1.00  0.00     0.023 A 
ATOM     16  C   UNL     1       4.795   1.904   0.404  1.00  0.00     0.038 A 
ATOM     17  C   UNL     1       4.440   0.780  -0.305  1.00  0.00     0.042 A 
ATOM     18  O   UNL     1       5.624   4.013   1.933  1.00  0.00    -0.246 OA
ATOM     19  Cl  UNL     1       3.305   0.915  -1.651  1.00  0.00    -0.084 Cl
ENDBRANCH   6   8
ENDBRANCH   1   6
TORSDOF 4
ENDMDL
MODEL 3
REMARK VINA RESULT:      -2.9      3.242      4.421
REMARK SMILES CN(C)CCN(C)c1nc2ccc(Cl)cc2c(=O)o1
REMARK SMILES IDX 5 1 4 2 2 3 1 4 3 5 6 6 7 7 8 8 9 9 19 10 10 11 17 12 11 13
REMARK SMILES IDX 16 14 12 15 15 16 13 17 18 18 14 19
REMARK H PARENT
ROOT
ATOM      1  C   UNL     1       8.294   5.807   1.876  1.00  0.00     0.136 C 
ENDROOT
BRANCH   1   2
ATOM      2  C   UNL     1       9.145   5.206   2.969  1.00  0.00     0.105 C 
BRANCH   2   3
ATOM      3  N   UNL     1       8.308   4.694   4.039  1.00  0.00    -0.308 NA
ATOM      4  C   UNL     1       8.223   3.233   3.965  1.00  0.00     0.105 C 
ATOM      5  C   UNL     1       6.961   5.255   3.956  1.00  0.00     0.105 C 
ENDBRANCH   2   3
ENDBRANCH   1   2
BRANCH   1   6
ATOM      6  N   UNL     1       8.542   5.162   0.602  1.00  0.00    -0.328 N 
ATOM      7  C   UNL     1       9.467   5.670  -0.377  1.00  0.00     0.148 C 
BRANCH   6   8
ATOM      8  C   UNL     1       7.827   3.939   0.313  1.00  0.00     0.300 A 
ATOM      9  N   UNL     1       6.534   3.823   0.650  1.00  0.00    -0.196 NA
ATOM     10  O   UNL     1       8.458   2.936  -0.287  1.00  0.00    -0.389 OA
ATOM     11  C   UNL     1       5.830   2.714   0.404  1.00  0.00     0.083 A 
ATOM     12  C   UNL     1       7.848   1.811  -0.567  1.00  0.00     0.348 A 
ATOM     13  C   UNL     1       4.494   2.572   0.742  1.00  0.00     0.031 A 
ATOM     14  C   UNL     1       6.505   1.668  -0.226  1.00  0.00     0.087 A 
ATOM     15  C   UNL     1       3.825   1.392   0.455  1.00  0.00     0.023 A 
ATOM     16  C   UNL     1       5.852   0.481  -0.521  1.00  0.00     0.038 A 
ATOM     17  C   UNL     1       4.527   0.383  -0.168  1.00  0.00     0.042 A 
ATOM     18  O   UNL     1       8.486   0.875  -1.141  1.00  0.00    -0.246 OA
ATOM     19  Cl  UNL     1       3.637  -1.103  -0.513  1.00  0.00    -0.084 Cl
ENDBRANCH   6   8
ENDBRANCH   1   6
TORSDOF 4
ENDMDL
MODEL 4
REMARK VINA RESULT:      -2.8      1.795      2.487
REMARK SMILES CN(C)CCN(C)c1nc2ccc(Cl)cc2c(=O)o1
REMARK SMILES IDX 5 1 4 2 2 3 1 4 3 5 6 6 7 7 8 8 9 9 19 10 10 11 17 12 11 13
REMARK SMILES IDX 16 14 12 15 15 16 13 17 18 18 14 19
REMARK H PARENT
ROOT
ATOM      1  C   UNL     1       8.113   1.064   4.479  1.00  0.00     0.136 C 
ENDROOT
BRANCH   1   2
ATOM      2  C   UNL     1       8.933   1.908   3.533  1.00  0.00     0.105 C 
BRANCH   2   3
ATOM      3  N   UNL     1       9.351   3.136   4.183  1.00  0.00    -0.308 NA
ATOM      4  C   UNL     1       8.268   3.671   5.012  1.00  0.00     0.105 C 
ATOM      5  C   UNL     1       9.735   4.141   3.192  1.00  0.00     0.105 C 
ENDBRANCH   2   3
ENDBRANCH   1   2
BRANCH   1   6
ATOM      6  N   UNL     1       6.973   0.474   3.805  1.00  0.00    -0.328 N 
ATOM      7  C   UNL     1       6.420  -0.807   4.157  1.00  0.00     0.148 C 
BRANCH   6   8
ATOM      8  C   UNL     1       6.361   1.224   2.732  1.00  0.00     0.300 A 
ATOM      9  N   UNL     1       6.232   2.555   2.833  1.00  0.00    -0.196 NA
ATOM     10  O   UNL     1       5.928   0.587   1.650  1.00  0.00    -0.389 OA
ATOM     11  C   UNL     1       5.673   3.292   1.869  1.00  0.00     0.083 A 
ATOM     12  C   UNL     1       5.366   1.227   0.654  1.00  0.00     0.348 A 
ATOM     13  C   UNL     1       5.530   4.668   1.950  1.00  0.00     0.031 A 
ATOM     14  C   UNL     1       5.222   2.610   0.737  1.00  0.00     0.087 A 
ATOM     15  C   UNL     1       4.941   5.369   0.909  1.00  0.00     0.023 A 
ATOM     16  C   UNL     1       4.631   3.295  -0.312  1.00  0.00     0.038 A 
ATOM     17  C   UNL     1       4.509   4.660  -0.189  1.00  0.00     0.042 A 
ATOM     18  O   UNL     1       4.966   0.583  -0.363  1.00  0.00    -0.246 OA
ATOM     19  Cl  UNL     1       3.763   5.592  -1.490  1.00  0.00    -0.084 Cl
ENDBRANCH   6   8
ENDBRANCH   1   6
TORSDOF 4
ENDMDL
MODEL 5
REMARK VINA RESULT:      -2.7      3.201      6.000
REMARK SMILES CN(C)CCN(C)c1nc2ccc(Cl)cc2c(=O)o1
REMARK SMILES IDX 5 1 4 2 2 3 1 4 3 5 6 6 7 7 8 8 9 9 19 10 10 11 17 12 11 13
REMARK SMILES IDX 16 14 12 15 15 16 13 17 18 18 14 19
REMARK H PARENT
ROOT
ATOM      1  C   UNL     1       5.007   3.318  -1.202  1.00  0.00     0.136 C 
ENDROOT
BRANCH   1   2
ATOM      2  C   UNL     1       5.711   4.588  -1.615  1.00  0.00     0.105 C 
BRANCH   2   3
ATOM      3  N   UNL     1       7.119   4.521  -1.270  1.00  0.00    -0.308 NA
ATOM      4  C   UNL     1       7.733   5.847  -1.370  1.00  0.00     0.105 C 
ATOM      5  C   UNL     1       7.826   3.600  -2.159  1.00  0.00     0.105 C 
ENDBRANCH   2   3
ENDBRANCH   1   2
BRANCH   1   6
ATOM      6  N   UNL     1       5.043   3.140   0.236  1.00  0.00    -0.328 N 
ATOM      7  C   UNL     1       4.420   4.048   1.164  1.00  0.00     0.148 C 
BRANCH   6   8
ATOM      8  C   UNL     1       5.732   1.981   0.756  1.00  0.00     0.300 A 
ATOM      9  N   UNL     1       6.946   2.115   1.312  1.00  0.00    -0.196 NA
ATOM     10  O   UNL     1       5.157   0.785   0.681  1.00  0.00    -0.389 OA
ATOM     11  C   UNL     1       7.623   1.075   1.806  1.00  0.00     0.083 A 
ATOM     12  C   UNL     1       5.747  -0.291   1.140  1.00  0.00     0.348 A 
ATOM     13  C   UNL     1       8.877   1.191   2.384  1.00  0.00     0.031 A 
ATOM     14  C   UNL     1       7.007  -0.174   1.720  1.00  0.00     0.087 A 
ATOM     15  C   UNL     1       9.521   0.067   2.879  1.00  0.00     0.023 A 
ATOM     16  C   UNL     1       7.637  -1.308   2.209  1.00  0.00     0.038 A 
ATOM     17  C   UNL     1       8.880  -1.147   2.775  1.00  0.00     0.042 A 
ATOM     18  O   UNL     1       5.164  -1.415   1.049  1.00  0.00    -0.246 OA
ATOM     19  Cl  UNL     1       9.737  -2.552   3.416  1.00  0.00    -0.084 Cl
ENDBRANCH   6   8
ENDBRANCH   1   6
TORSDOF 4
ENDMDL
MODEL 6
REMARK VINA RESULT:      -2.6      3.136      5.992
REMARK SMILES CN(C)CCN(C)c1nc2ccc(Cl)cc2c(=O)o1
REMARK SMILES IDX 5 1 4 2 2 3 1 4 3 5 6 6 7 7 8 8 9 9 19 10 10 11 17 12 11 13
REMARK SMILES IDX 16 14 12 15 15 16 13 17 18 18 14 19
REMARK H PARENT
ROOT
ATOM      1  C   UNL     1       5.014   2.593  -1.776  1.00  0.00     0.136 C 
ENDROOT
BRANCH   1   2
ATOM      2  C   UNL     1       4.026   3.522  -1.112  1.00  0.00     0.105 C 
BRANCH   2   3
ATOM      3  N   UNL     1       4.601   4.845  -0.955  1.00  0.00    -0.308 NA
ATOM      4  C   UNL     1       4.507   5.280   0.441  1.00  0.00     0.105 C 
ATOM      5  C   UNL     1       3.911   5.813  -1.805  1.00  0.00     0.105 C 
ENDBRANCH   2   3
ENDBRANCH   1   2
BRANCH   1   6
ATOM      6  N   UNL     1       6.332   2.718  -1.186  1.00  0.00    -0.328 N 
ATOM      7  C   UNL     1       7.315   3.670  -1.635  1.00  0.00     0.148 C 
BRANCH   6   8
ATOM      8  C   UNL     1       6.665   1.845  -0.083  1.00  0.00     0.300 A 
ATOM      9  N   UNL     1       7.653   2.177   0.761  1.00  0.00    -0.196 NA
ATOM     10  O   UNL     1       5.987   0.714   0.087  1.00  0.00    -0.389 OA
ATOM     11  C   UNL     1       7.998   1.404   1.794  1.00  0.00     0.083 A 
ATOM     12  C   UNL     1       6.256  -0.105   1.073  1.00  0.00     0.348 A 
ATOM     13  C   UNL     1       9.014   1.727   2.680  1.00  0.00     0.031 A 
ATOM     14  C   UNL     1       7.278   0.220   1.961  1.00  0.00     0.087 A 
ATOM     15  C   UNL     1       9.316   0.877   3.732  1.00  0.00     0.023 A 
ATOM     16  C   UNL     1       7.568  -0.642   3.008  1.00  0.00     0.038 A 
ATOM     17  C   UNL     1       8.583  -0.282   3.862  1.00  0.00     0.042 A 
ATOM     18  O   UNL     1       5.586  -1.176   1.201  1.00  0.00    -0.246 OA
ATOM     19  Cl  UNL     1       9.003  -1.336   5.215  1.00  0.00    -0.084 Cl
ENDBRANCH   6   8
ENDBRANCH   1   6
TORSDOF 4
ENDMDL
MODEL 7
REMARK VINA RESULT:      -2.6      3.040      5.017
REMARK SMILES CN(C)CCN(C)c1nc2ccc(Cl)cc2c(=O)o1
REMARK SMILES IDX 5 1 4 2 2 3 1 4 3 5 6 6 7 7 8 8 9 9 19 10 10 11 17 12 11 13
REMARK SMILES IDX 16 14 12 15 15 16 13 17 18 18 14 19
REMARK H PARENT
ROOT
ATOM      1  C   UNL     1       8.566   5.212   2.846  1.00  0.00     0.136 C 
ENDROOT
BRANCH   1   2
ATOM      2  C   UNL     1       7.528   5.798   1.919  1.00  0.00     0.105 C 
BRANCH   2   3
ATOM      3  N   UNL     1       8.029   5.837   0.558  1.00  0.00    -0.308 NA
ATOM      4  C   UNL     1       6.932   5.649  -0.395  1.00  0.00     0.105 C 
ATOM      5  C   UNL     1       9.030   4.794   0.345  1.00  0.00     0.105 C 
ENDBRANCH   2   3
ENDBRANCH   1   2
BRANCH   1   6
ATOM      6  N   UNL     1       7.995   4.184   3.693  1.00  0.00    -0.328 N 
ATOM      7  C   UNL     1       8.076   4.205   5.131  1.00  0.00     0.148 C 
BRANCH   6   8
ATOM      8  C   UNL     1       7.301   3.090   3.053  1.00  0.00     0.300 A 
ATOM      9  N   UNL     1       6.332   3.341   2.159  1.00  0.00    -0.196 NA
ATOM     10  O   UNL     1       7.628   1.838   3.355  1.00  0.00    -0.389 OA
ATOM     11  C   UNL     1       5.662   2.365   1.541  1.00  0.00     0.083 A 
ATOM     12  C   UNL     1       7.024   0.817   2.799  1.00  0.00     0.348 A 
ATOM     13  C   UNL     1       4.659   2.600   0.615  1.00  0.00     0.031 A 
ATOM     14  C   UNL     1       6.015   1.055   1.868  1.00  0.00     0.087 A 
ATOM     15  C   UNL     1       4.006   1.537   0.010  1.00  0.00     0.023 A 
ATOM     16  C   UNL     1       5.373  -0.020   1.274  1.00  0.00     0.038 A 
ATOM     17  C   UNL     1       4.384   0.260   0.360  1.00  0.00     0.042 A 
ATOM     18  O   UNL     1       7.365  -0.364   3.115  1.00  0.00    -0.246 OA
ATOM     19  Cl  UNL     1       3.525  -1.064  -0.432  1.00  0.00    -0.084 Cl
ENDBRANCH   6   8
ENDBRANCH   1   6
TORSDOF 4
ENDMDL
MODEL 8
REMARK VINA RESULT:      -2.5      1.695      2.244
REMARK SMILES CN(C)CCN(C)c1nc2ccc(Cl)cc2c(=O)o1
REMARK SMILES IDX 5 1 4 2 2 3 1 4 3 5 6 6 7 7 8 8 9 9 19 10 10 11 17 12 11 13
REMARK SMILES IDX 16 14 12 15 15 16 13 17 18 18 14 19
REMARK H PARENT
ROOT
ATOM      1  C   UNL     1       7.846  -1.329   3.150  1.00  0.00     0.136 C 
ENDROOT
BRANCH   1   2
ATOM      2  C   UNL     1       8.732  -1.026   4.334  1.00  0.00     0.105 C 
BRANCH   2   3
ATOM      3  N   UNL     1       8.098  -0.054   5.206  1.00  0.00    -0.308 NA
ATOM      4  C   UNL     1       6.726   0.209   4.765  1.00  0.00     0.105 C 
ATOM      5  C   UNL     1       8.846   1.202   5.212  1.00  0.00     0.105 C 
ENDBRANCH   2   3
ENDBRANCH   1   2
BRANCH   1   6
ATOM      6  N   UNL     1       8.505  -1.004   1.901  1.00  0.00    -0.328 N 
ATOM      7  C   UNL     1       9.610  -1.758   1.368  1.00  0.00     0.148 C 
BRANCH   6   8
ATOM      8  C   UNL     1       8.015   0.132   1.154  1.00  0.00     0.300 A 
ATOM      9  N   UNL     1       6.727   0.496   1.255  1.00  0.00    -0.196 NA
ATOM     10  O   UNL     1       8.845   0.810   0.369  1.00  0.00    -0.389 OA
ATOM     11  C   UNL     1       6.227   1.537   0.585  1.00  0.00     0.083 A 
ATOM     12  C   UNL     1       8.442   1.845  -0.326  1.00  0.00     0.348 A 
ATOM     13  C   UNL     1       4.901   1.932   0.674  1.00  0.00     0.031 A 
ATOM     14  C   UNL     1       7.109   2.240  -0.236  1.00  0.00     0.087 A 
ATOM     15  C   UNL     1       4.450   3.026  -0.049  1.00  0.00     0.023 A 
ATOM     16  C   UNL     1       6.676   3.335  -0.967  1.00  0.00     0.038 A 
ATOM     17  C   UNL     1       5.353   3.692  -0.848  1.00  0.00     0.042 A 
ATOM     18  O   UNL     1       9.266   2.466  -1.065  1.00  0.00    -0.246 OA
ATOM     19  Cl  UNL     1       4.736   5.077  -1.754  1.00  0.00    -0.084 Cl
ENDBRANCH   6   8
ENDBRANCH   1   6
TORSDOF 4
ENDMDL
MODEL 9
REMARK VINA RESULT:      -2.4      2.592      3.857
REMARK SMILES CN(C)CCN(C)c1nc2ccc(Cl)cc2c(=O)o1
REMARK SMILES IDX 5 1 4 2 2 3 1 4 3 5 6 6 7 7 8 8 9 9 19 10 10 11 17 12 11 13
REMARK SMILES IDX 16 14 12 15 15 16 13 17 18 18 14 19
REMARK H PARENT
ROOT
ATOM      1  C   UNL     1       9.736   2.566   3.273  1.00  0.00     0.136 C 
ENDROOT
BRANCH   1   2
ATOM      2  C   UNL     1       9.740   3.934   3.913  1.00  0.00     0.105 C 
BRANCH   2   3
ATOM      3  N   UNL     1       8.924   4.856   3.144  1.00  0.00    -0.308 NA
ATOM      4  C   UNL     1       9.740   5.549   2.144  1.00  0.00     0.105 C 
ATOM      5  C   UNL     1       8.299   5.846   4.019  1.00  0.00     0.105 C 
ENDBRANCH   2   3
ENDBRANCH   1   2
BRANCH   1   6
ATOM      6  N   UNL     1       8.675   1.738   3.810  1.00  0.00    -0.328 N 
ATOM      7  C   UNL     1       8.627   1.302   5.181  1.00  0.00     0.148 C 
BRANCH   6   8
ATOM      8  C   UNL     1       7.609   1.342   2.917  1.00  0.00     0.300 A 
ATOM      9  N   UNL     1       7.076   2.237   2.072  1.00  0.00    -0.196 NA
ATOM     10  O   UNL     1       7.164   0.091   2.941  1.00  0.00    -0.389 OA
ATOM     11  C   UNL     1       6.090   1.920   1.228  1.00  0.00     0.083 A 
ATOM     12  C   UNL     1       6.199  -0.309   2.149  1.00  0.00     0.348 A 
ATOM     13  C   UNL     1       5.524   2.827   0.346  1.00  0.00     0.031 A 
ATOM     14  C   UNL     1       5.631   0.603   1.263  1.00  0.00     0.087 A 
ATOM     15  C   UNL     1       4.504   2.427  -0.504  1.00  0.00     0.023 A 
ATOM     16  C   UNL     1       4.611   0.186   0.422  1.00  0.00     0.038 A 
ATOM     17  C   UNL     1       4.079   1.119  -0.438  1.00  0.00     0.042 A 
ATOM     18  O   UNL     1       5.801  -1.513   2.202  1.00  0.00    -0.246 OA
ATOM     19  Cl  UNL     1       2.776   0.654  -1.536  1.00  0.00    -0.084 Cl
ENDBRANCH   6   8
ENDBRANCH   1   6
TORSDOF 4
ENDMDL
