MODEL 1
REMARK VINA RESULT:      -4.4      0.000      0.000
REMARK SMILES O=C(Cc1ccsc1)N1CCC(c2cccnc2)C1
REMARK SMILES IDX 1 1 2 2 3 3 4 4 5 5 8 6 6 7 7 8 9 9 10 10 19 11 11 12 12 13
REMARK SMILES IDX 13 14 14 15 18 16 15 17 17 18 16 19
REMARK H PARENT
ROOT
ATOM      1  O   UNL     1       2.665   0.123   0.945  1.00  0.00    -0.275 OA
ATOM      2  C   UNL     1       3.750   0.447   0.383  1.00  0.00     0.227 C 
ENDROOT
BRANCH   2   3
ATOM      3  C   UNL     1       3.781   1.331  -0.811  1.00  0.00     0.136 C 
BRANCH   3   4
ATOM      4  C   UNL     1       4.533   2.608  -0.489  1.00  0.00    -0.028 A 
ATOM      5  C   UNL     1       4.469   3.226   0.685  1.00  0.00     0.016 A 
ATOM      6  C   UNL     1       5.337   3.177  -1.471  1.00  0.00     0.069 A 
ATOM      7  C   UNL     1       5.168   4.363   0.897  1.00  0.00     0.065 A 
ATOM      8  S   UNL     1       6.049   4.678  -0.688  1.00  0.00    -0.152 S 
ENDBRANCH   3   4
ENDBRANCH   2   3
BRANCH   2   9
ATOM      9  N   UNL     1       5.003  -0.020   0.870  1.00  0.00    -0.342 N 
ATOM     10  C   UNL     1       6.067  -0.708   0.162  1.00  0.00     0.120 C 
ATOM     11  C   UNL     1       5.525   0.088   2.247  1.00  0.00     0.128 C 
ATOM     12  C   UNL     1       7.274   0.078   0.599  1.00  0.00     0.032 C 
ATOM     13  C   UNL     1       6.982   0.403   2.042  1.00  0.00     0.042 C 
BRANCH  13  14
ATOM     14  C   UNL     1       7.905  -0.344   2.899  1.00  0.00    -0.025 A 
ATOM     15  C   UNL     1       7.689  -0.257   4.282  1.00  0.00     0.007 A 
ATOM     16  C   UNL     1       8.947  -1.115   2.494  1.00  0.00     0.115 A 
ATOM     17  C   UNL     1       8.497  -0.922   5.182  1.00  0.00     0.020 A 
ATOM     18  N   UNL     1       9.740  -1.767   3.370  1.00  0.00    -0.264 NA
ATOM     19  C   UNL     1       9.544  -1.691   4.700  1.00  0.00     0.111 A 
ENDBRANCH  13  14
ENDBRANCH   2   9
TORSDOF 4
ENDMDL
MODEL 2
REMARK VINA RESULT:      -4.2      0.965      1.239
REMARK SMILES O=C(Cc1ccsc1)N1CCC(c2cccnc2)C1
REMARK SMILES IDX 1 1 2 2 3 3 4 4 5 5 8 6 6 7 7 8 9 9 10 10 19 11 11 12 12 13
REMARK SMILES IDX 13 14 14 15 18 16 15 17 17 18 16 19
REMARK H PARENT
ROOT
ATOM      1  O   UNL     1       3.284   0.244  -0.294  1.00  0.00    -0.275 OA
ATOM      2  C   UNL     1       4.363   0.891  -0.411  1.00  0.00     0.227 C 
ENDROOT
BRANCH   2   3
ATOM      3  C   UNL     1       4.469   2.092  -1.279  1.00  0.00     0.136 C 
BRANCH   3   4
ATOM      4  C   UNL     1       4.985   3.268  -0.473  1.00  0.00    -0.028 A 
ATOM      5  C   UNL     1       6.017   4.019  -0.842  1.00  0.00     0.016 A 
ATOM      6  C   UNL     1       4.352   3.589   0.724  1.00  0.00     0.069 A 
ATOM      7  C   UNL     1       6.420   5.052  -0.068  1.00  0.00     0.065 A 
ATOM      8  S   UNL     1       5.271   5.043   1.370  1.00  0.00    -0.152 S 
ENDBRANCH   3   4
ENDBRANCH   2   3
BRANCH   2   9
ATOM      9  N   UNL     1       5.539   0.498   0.288  1.00  0.00    -0.342 N 
ATOM     10  C   UNL     1       6.887   0.302  -0.215  1.00  0.00     0.120 C 
ATOM     11  C   UNL     1       5.664   0.189   1.727  1.00  0.00     0.128 C 
ATOM     12  C   UNL     1       7.697   1.069   0.795  1.00  0.00     0.032 C 
ATOM     13  C   UNL     1       6.989   0.798   2.098  1.00  0.00     0.042 C 
BRANCH  13  14
ATOM     14  C   UNL     1       7.842  -0.041   2.944  1.00  0.00    -0.025 A 
ATOM     15  C   UNL     1       7.652   0.064   4.330  1.00  0.00     0.007 A 
ATOM     16  C   UNL     1       8.795  -0.911   2.526  1.00  0.00     0.115 A 
ATOM     17  C   UNL     1       8.399  -0.682   5.218  1.00  0.00     0.020 A 
ATOM     18  N   UNL     1       9.529  -1.643   3.391  1.00  0.00    -0.264 NA
ATOM     19  C   UNL     1       9.357  -1.551   4.723  1.00  0.00     0.111 A 
ENDBRANCH  13  14
ENDBRANCH   2   9
TORSDOF 4
ENDMDL
MODEL 3
REMARK VINA RESULT:      -4.2      1.486      1.910
REMARK SMILES O=C(Cc1ccsc1)N1CCC(c2cccnc2)C1
REMARK SMILES IDX 1 1 2 2 3 3 4 4 5 5 8 6 6 7 7 8 9 9 10 10 19 11 11 12 12 13
REMARK SMILES IDX 13 14 14 15 18 16 15 17 17 18 16 19
REMARK H PARENT
ROOT
ATOM      1  O   UNL     1       3.715   1.130  -1.122  1.00  0.00    -0.275 OA
ATOM      2  C   UNL     1       4.770   1.781  -0.879  1.00  0.00     0.227 C 
ENDROOT
BRANCH   2   3
ATOM      3  C   UNL     1       5.010   3.130  -1.454  1.00  0.00     0.136 C 
BRANCH   3   4
ATOM      4  C   UNL     1       5.296   4.122  -0.342  1.00  0.00    -0.028 A 
ATOM      5  C   UNL     1       4.417   4.448   0.599  1.00  0.00     0.016 A 
ATOM      6  C   UNL     1       6.544   4.734  -0.296  1.00  0.00     0.069 A 
ATOM      7  C   UNL     1       4.746   5.343   1.558  1.00  0.00     0.065 A 
ATOM      8  S   UNL     1       6.475   5.839   1.170  1.00  0.00    -0.152 S 
ENDBRANCH   3   4
ENDBRANCH   2   3
BRANCH   2   9
ATOM      9  N   UNL     1       5.788   1.252  -0.036  1.00  0.00    -0.342 N 
ATOM     10  C   UNL     1       7.125   0.802  -0.378  1.00  0.00     0.120 C 
ATOM     11  C   UNL     1       5.716   1.030   1.422  1.00  0.00     0.128 C 
ATOM     12  C   UNL     1       7.951   1.495   0.671  1.00  0.00     0.032 C 
ATOM     13  C   UNL     1       7.083   1.438   1.902  1.00  0.00     0.042 C 
BRANCH  13  14
ATOM     14  C   UNL     1       7.693   0.533   2.879  1.00  0.00    -0.025 A 
ATOM     15  C   UNL     1       8.890  -0.091   2.496  1.00  0.00     0.007 A 
ATOM     16  C   UNL     1       7.223   0.236   4.117  1.00  0.00     0.115 A 
ATOM     17  C   UNL     1       9.551  -0.962   3.339  1.00  0.00     0.020 A 
ATOM     18  N   UNL     1       7.866  -0.615   4.944  1.00  0.00    -0.264 NA
ATOM     19  C   UNL     1       9.014  -1.220   4.589  1.00  0.00     0.111 A 
ENDBRANCH  13  14
ENDBRANCH   2   9
TORSDOF 4
ENDMDL
MODEL 4
REMARK VINA RESULT:      -3.6      3.401      5.959
REMARK SMILES O=C(Cc1ccsc1)N1CCC(c2cccnc2)C1
REMARK SMILES IDX 1 1 2 2 3 3 4 4 5 5 8 6 6 7 7 8 9 9 10 10 19 11 11 12 12 13
REMARK SMILES IDX 13 14 14 15 18 16 15 17 17 18 16 19
REMARK H PARENT
ROOT
ATOM      1  O   UNL     1       4.956  -1.026   0.458  1.00  0.00    -0.275 OA
ATOM      2  C   UNL     1       5.607  -0.108   1.032  1.00  0.00     0.227 C 
ENDROOT
BRANCH   2   3
ATOM      3  C   UNL     1       5.819  -0.098   2.503  1.00  0.00     0.136 C 
BRANCH   3   4
ATOM      4  C   UNL     1       7.291  -0.287   2.815  1.00  0.00    -0.028 A 
ATOM      5  C   UNL     1       7.989  -1.358   2.455  1.00  0.00     0.016 A 
ATOM      6  C   UNL     1       7.959   0.709   3.518  1.00  0.00     0.069 A 
ATOM      7  C   UNL     1       9.300  -1.456   2.771  1.00  0.00     0.065 A 
ATOM      8  S   UNL     1       9.684   0.096   3.682  1.00  0.00    -0.152 S 
ENDBRANCH   3   4
ENDBRANCH   2   3
BRANCH   2   9
ATOM      9  N   UNL     1       6.174   0.968   0.294  1.00  0.00    -0.342 N 
ATOM     10  C   UNL     1       5.597   2.255  -0.048  1.00  0.00     0.120 C 
ATOM     11  C   UNL     1       7.519   1.026  -0.313  1.00  0.00     0.128 C 
ATOM     12  C   UNL     1       6.708   3.194   0.336  1.00  0.00     0.032 C 
ATOM     13  C   UNL     1       7.957   2.442  -0.050  1.00  0.00     0.042 C 
BRANCH  13  14
ATOM     14  C   UNL     1       8.591   3.116  -1.186  1.00  0.00    -0.025 A 
ATOM     15  C   UNL     1       8.587   2.427  -2.408  1.00  0.00     0.007 A 
ATOM     16  C   UNL     1       9.181   4.338  -1.180  1.00  0.00     0.115 A 
ATOM     17  C   UNL     1       9.154   2.969  -3.544  1.00  0.00     0.020 A 
ATOM     18  N   UNL     1       9.738   4.872  -2.288  1.00  0.00    -0.264 NA
ATOM     19  C   UNL     1       9.740   4.221  -3.467  1.00  0.00     0.111 A 
ENDBRANCH  13  14
ENDBRANCH   2   9
TORSDOF 4
ENDMDL
MODEL 5
REMARK VINA RESULT:      -3.6      1.677      1.961
REMARK SMILES O=C(Cc1ccsc1)N1CCC(c2cccnc2)C1
REMARK SMILES IDX 1 1 2 2 3 3 4 4 5 5 8 6 6 7 7 8 9 9 10 10 19 11 11 12 12 13
REMARK SMILES IDX 13 14 14 15 18 16 15 17 17 18 16 19
REMARK H PARENT
ROOT
ATOM      1  O   UNL     1       4.051   1.410  -1.194  1.00  0.00    -0.275 OA
ATOM      2  C   UNL     1       4.940   1.998  -0.517  1.00  0.00     0.227 C 
ENDROOT
BRANCH   2   3
ATOM      3  C   UNL     1       5.064   3.478  -0.501  1.00  0.00     0.136 C 
BRANCH   3   4
ATOM      4  C   UNL     1       6.511   3.879  -0.716  1.00  0.00    -0.028 A 
ATOM      5  C   UNL     1       7.212   4.603   0.149  1.00  0.00     0.016 A 
ATOM      6  C   UNL     1       7.152   3.471  -1.881  1.00  0.00     0.069 A 
ATOM      7  C   UNL     1       8.499   4.922  -0.114  1.00  0.00     0.065 A 
ATOM      8  S   UNL     1       8.852   4.154  -1.749  1.00  0.00    -0.152 S 
ENDBRANCH   3   4
ENDBRANCH   2   3
BRANCH   2   9
ATOM      9  N   UNL     1       5.874   1.267   0.270  1.00  0.00    -0.342 N 
ATOM     10  C   UNL     1       6.829   0.253  -0.138  1.00  0.00     0.120 C 
ATOM     11  C   UNL     1       6.093   1.373   1.728  1.00  0.00     0.128 C 
ATOM     12  C   UNL     1       8.083   0.730   0.542  1.00  0.00     0.032 C 
ATOM     13  C   UNL     1       7.588   1.267   1.862  1.00  0.00     0.042 C 
BRANCH  13  14
ATOM     14  C   UNL     1       8.054   0.393   2.941  1.00  0.00    -0.025 A 
ATOM     15  C   UNL     1       7.317   0.420   4.134  1.00  0.00     0.007 A 
ATOM     16  C   UNL     1       9.123  -0.442   2.907  1.00  0.00     0.115 A 
ATOM     17  C   UNL     1       7.665  -0.364   5.215  1.00  0.00     0.020 A 
ATOM     18  N   UNL     1       9.468  -1.211   3.961  1.00  0.00    -0.264 NA
ATOM     19  C   UNL     1       8.769  -1.194   5.112  1.00  0.00     0.111 A 
ENDBRANCH  13  14
ENDBRANCH   2   9
TORSDOF 4
ENDMDL
MODEL 6
REMARK VINA RESULT:      -3.5      1.520      1.780
REMARK SMILES O=C(Cc1ccsc1)N1CCC(c2cccnc2)C1
REMARK SMILES IDX 1 1 2 2 3 3 4 4 5 5 8 6 6 7 7 8 9 9 10 10 19 11 11 12 12 13
REMARK SMILES IDX 13 14 14 15 18 16 15 17 17 18 16 19
REMARK H PARENT
ROOT
ATOM      1  O   UNL     1       3.064   1.246  -0.338  1.00  0.00    -0.275 OA
ATOM      2  C   UNL     1       4.286   1.493  -0.545  1.00  0.00     0.227 C 
ENDROOT
BRANCH   2   3
ATOM      3  C   UNL     1       4.737   2.291  -1.715  1.00  0.00     0.136 C 
BRANCH   3   4
ATOM      4  C   UNL     1       5.415   3.563  -1.243  1.00  0.00    -0.028 A 
ATOM      5  C   UNL     1       4.765   4.587  -0.701  1.00  0.00     0.016 A 
ATOM      6  C   UNL     1       6.794   3.677  -1.381  1.00  0.00     0.069 A 
ATOM      7  C   UNL     1       5.440   5.689  -0.305  1.00  0.00     0.065 A 
ATOM      8  S   UNL     1       7.201   5.335  -0.702  1.00  0.00    -0.152 S 
ENDBRANCH   3   4
ENDBRANCH   2   3
BRANCH   2   9
ATOM      9  N   UNL     1       5.296   1.018   0.336  1.00  0.00    -0.342 N 
ATOM     10  C   UNL     1       6.172  -0.131   0.199  1.00  0.00     0.120 C 
ATOM     11  C   UNL     1       5.698   1.599   1.634  1.00  0.00     0.128 C 
ATOM     12  C   UNL     1       7.511   0.471   0.529  1.00  0.00     0.032 C 
ATOM     13  C   UNL     1       7.197   1.454   1.629  1.00  0.00     0.042 C 
BRANCH  13  14
ATOM     14  C   UNL     1       7.777   0.972   2.884  1.00  0.00    -0.025 A 
ATOM     15  C   UNL     1       9.092   1.371   3.163  1.00  0.00     0.007 A 
ATOM     16  C   UNL     1       7.174   0.180   3.807  1.00  0.00     0.115 A 
ATOM     17  C   UNL     1       9.736   0.977   4.319  1.00  0.00     0.020 A 
ATOM     18  N   UNL     1       7.799  -0.208   4.939  1.00  0.00    -0.264 NA
ATOM     19  C   UNL     1       9.061   0.168   5.218  1.00  0.00     0.111 A 
ENDBRANCH  13  14
ENDBRANCH   2   9
TORSDOF 4
ENDMDL
MODEL 7
REMARK VINA RESULT:      -3.3      1.836      2.315
REMARK SMILES O=C(Cc1ccsc1)N1CCC(c2cccnc2)C1
REMARK SMILES IDX 1 1 2 2 3 3 4 4 5 5 8 6 6 7 7 8 9 9 10 10 19 11 11 12 12 13
REMARK SMILES IDX 13 14 14 15 18 16 15 17 17 18 16 19
REMARK H PARENT
ROOT
ATOM      1  O   UNL     1       4.335   1.363  -1.714  1.00  0.00    -0.275 OA
ATOM      2  C   UNL     1       5.081   2.035  -0.947  1.00  0.00     0.227 C 
ENDROOT
BRANCH   2   3
ATOM      3  C   UNL     1       5.367   3.472  -1.192  1.00  0.00     0.136 C 
BRANCH   3   4
ATOM      4  C   UNL     1       6.848   3.743  -1.009  1.00  0.00    -0.028 A 
ATOM      5  C   UNL     1       7.354   4.415   0.019  1.00  0.00     0.016 A 
ATOM      6  C   UNL     1       7.739   3.267  -1.966  1.00  0.00     0.069 A 
ATOM      7  C   UNL     1       8.687   4.617   0.112  1.00  0.00     0.065 A 
ATOM      8  S   UNL     1       9.395   3.801  -1.378  1.00  0.00    -0.152 S 
ENDBRANCH   3   4
ENDBRANCH   2   3
BRANCH   2   9
ATOM      9  N   UNL     1       5.689   1.444   0.196  1.00  0.00    -0.342 N 
ATOM     10  C   UNL     1       5.405   1.656   1.603  1.00  0.00     0.120 C 
ATOM     11  C   UNL     1       6.783   0.451   0.215  1.00  0.00     0.128 C 
ATOM     12  C   UNL     1       5.316   0.241   2.107  1.00  0.00     0.032 C 
ATOM     13  C   UNL     1       6.384  -0.482   1.326  1.00  0.00     0.042 C 
BRANCH  13  14
ATOM     14  C   UNL     1       7.468  -0.864   2.235  1.00  0.00    -0.025 A 
ATOM     15  C   UNL     1       7.398  -0.362   3.543  1.00  0.00     0.007 A 
ATOM     16  C   UNL     1       8.532  -1.654   1.943  1.00  0.00     0.115 A 
ATOM     17  C   UNL     1       8.365  -0.660   4.482  1.00  0.00     0.020 A 
ATOM     18  N   UNL     1       9.480  -1.948   2.859  1.00  0.00    -0.264 NA
ATOM     19  C   UNL     1       9.425  -1.473   4.117  1.00  0.00     0.111 A 
ENDBRANCH  13  14
ENDBRANCH   2   9
TORSDOF 4
ENDMDL
MODEL 8
REMARK VINA RESULT:      -3.1      1.794      2.448
REMARK SMILES O=C(Cc1ccsc1)N1CCC(c2cccnc2)C1
REMARK SMILES IDX 1 1 2 2 3 3 4 4 5 5 8 6 6 7 7 8 9 9 10 10 19 11 11 12 12 13
REMARK SMILES IDX 13 14 14 15 18 16 15 17 17 18 16 19
REMARK H PARENT
ROOT
ATOM      1  O   UNL     1       4.045   1.208  -1.600  1.00  0.00    -0.275 OA
ATOM      2  C   UNL     1       4.834   1.924  -0.920  1.00  0.00     0.227 C 
ENDROOT
BRANCH   2   3
ATOM      3  C   UNL     1       5.132   3.332  -1.290  1.00  0.00     0.136 C 
BRANCH   3   4
ATOM      4  C   UNL     1       6.620   3.597  -1.157  1.00  0.00    -0.028 A 
ATOM      5  C   UNL     1       7.156   4.315  -0.177  1.00  0.00     0.016 A 
ATOM      6  C   UNL     1       7.482   3.066  -2.111  1.00  0.00     0.069 A 
ATOM      7  C   UNL     1       8.493   4.509  -0.126  1.00  0.00     0.065 A 
ATOM      8  S   UNL     1       9.157   3.614  -1.591  1.00  0.00    -0.152 S 
ENDBRANCH   3   4
ENDBRANCH   2   3
BRANCH   2   9
ATOM      9  N   UNL     1       5.480   1.414   0.240  1.00  0.00    -0.342 N 
ATOM     10  C   UNL     1       5.078   1.502   1.632  1.00  0.00     0.120 C 
ATOM     11  C   UNL     1       6.747   0.657   0.300  1.00  0.00     0.128 C 
ATOM     12  C   UNL     1       5.244   0.076   2.083  1.00  0.00     0.032 C 
ATOM     13  C   UNL     1       6.479  -0.386   1.351  1.00  0.00     0.042 C 
BRANCH  13  14
ATOM     14  C   UNL     1       7.562  -0.587   2.316  1.00  0.00    -0.025 A 
ATOM     15  C   UNL     1       8.650  -1.362   1.888  1.00  0.00     0.007 A 
ATOM     16  C   UNL     1       7.623  -0.101   3.582  1.00  0.00     0.115 A 
ATOM     17  C   UNL     1       9.727  -1.613   2.715  1.00  0.00     0.020 A 
ATOM     18  N   UNL     1       8.674  -0.344   4.394  1.00  0.00    -0.264 NA
ATOM     19  C   UNL     1       9.724  -1.085   3.995  1.00  0.00     0.111 A 
ENDBRANCH  13  14
ENDBRANCH   2   9
TORSDOF 4
ENDMDL
MODEL 9
REMARK VINA RESULT:      -2.9      1.178      1.699
REMARK SMILES O=C(Cc1ccsc1)N1CCC(c2cccnc2)C1
REMARK SMILES IDX 1 1 2 2 3 3 4 4 5 5 8 6 6 7 7 8 9 9 10 10 19 11 11 12 12 13
REMARK SMILES IDX 13 14 14 15 18 16 15 17 17 18 16 19
REMARK H PARENT
ROOT
ATOM      1  O   UNL     1       3.569   1.411  -0.293  1.00  0.00    -0.275 OA
ATOM      2  C   UNL     1       4.444   1.813   0.525  1.00  0.00     0.227 C 
ENDROOT
BRANCH   2   3
ATOM      3  C   UNL     1       4.526   3.235   0.950  1.00  0.00     0.136 C 
BRANCH   3   4
ATOM      4  C   UNL     1       5.812   3.854   0.435  1.00  0.00    -0.028 A 
ATOM      5  C   UNL     1       6.197   3.806  -0.835  1.00  0.00     0.016 A 
ATOM      6  C   UNL     1       6.644   4.513   1.335  1.00  0.00     0.069 A 
ATOM      7  C   UNL     1       7.359   4.381  -1.217  1.00  0.00     0.065 A 
ATOM      8  S   UNL     1       8.061   5.101   0.324  1.00  0.00    -0.152 S 
ENDBRANCH   3   4
ENDBRANCH   2   3
BRANCH   2   9
ATOM      9  N   UNL     1       5.400   0.920   1.084  1.00  0.00    -0.342 N 
ATOM     10  C   UNL     1       5.740  -0.434   0.685  1.00  0.00     0.120 C 
ATOM     11  C   UNL     1       6.294   1.169   2.234  1.00  0.00     0.128 C 
ATOM     12  C   UNL     1       7.243  -0.367   0.648  1.00  0.00     0.032 C 
ATOM     13  C   UNL     1       7.587   0.524   1.814  1.00  0.00     0.042 C 
BRANCH  13  14
ATOM     14  C   UNL     1       8.247  -0.273   2.851  1.00  0.00    -0.025 A 
ATOM     15  C   UNL     1       8.241   0.255   4.150  1.00  0.00     0.007 A 
ATOM     16  C   UNL     1       8.862  -1.472   2.685  1.00  0.00     0.115 A 
ATOM     17  C   UNL     1       8.832  -0.413   5.203  1.00  0.00     0.020 A 
ATOM     18  N   UNL     1       9.441  -2.129   3.712  1.00  0.00    -0.264 NA
ATOM     19  C   UNL     1       9.443  -1.633   4.964  1.00  0.00     0.111 A 
ENDBRANCH  13  14
ENDBRANCH   2   9
TORSDOF 4
ENDMDL
