MODEL 1
REMARK VINA RESULT:      -5.7      0.000      0.000
REMARK SMILES O=C1NC2(CCCCC2)Nc2ccccc21
REMARK SMILES IDX 1 1 2 2 3 3 4 4 5 5 6 6 7 7 8 8 9 9 10 10 11 11 12 12 13 13
REMARK SMILES IDX 14 14 15 15 16 16
REMARK H PARENT 3 17 10 18
ROOT
ATOM      1  O   UNL     1       3.877  -0.875   0.113  1.00  0.00    -0.269 OA
ATOM      2  C   UNL     1       5.014  -0.369   0.251  1.00  0.00     0.255 C 
ATOM      3  N   UNL     1       6.050  -1.050   0.949  1.00  0.00    -0.329 N 
ATOM      4  C   UNL     1       7.118  -0.270   1.558  1.00  0.00     0.110 C 
ATOM      5  C   UNL     1       6.541   0.522   2.691  1.00  0.00     0.051 C 
ATOM      6  C   UNL     1       6.710  -0.255   3.975  1.00  0.00     0.004 C 
ATOM      7  C   UNL     1       8.203  -0.227   4.277  1.00  0.00     0.000 C 
ATOM      8  C   UNL     1       9.044  -0.690   3.140  1.00  0.00     0.004 C 
ATOM      9  C   UNL     1       8.263  -1.142   1.935  1.00  0.00     0.051 C 
ATOM     10  N   UNL     1       7.575   0.727   0.581  1.00  0.00    -0.362 N 
ATOM     11  C   UNL     1       6.604   1.472  -0.126  1.00  0.00     0.049 A 
ATOM     12  C   UNL     1       6.910   2.711  -0.643  1.00  0.00     0.026 A 
ATOM     13  C   UNL     1       5.990   3.469  -1.339  1.00  0.00     0.002 A 
ATOM     14  C   UNL     1       4.732   2.924  -1.499  1.00  0.00     0.001 A 
ATOM     15  C   UNL     1       4.376   1.688  -1.001  1.00  0.00     0.016 A 
ATOM     16  C   UNL     1       5.323   0.962  -0.311  1.00  0.00     0.063 A 
ATOM     17  H   UNL     1       6.029  -2.111   1.012  1.00  0.00     0.166 HD
ATOM     18  H   UNL     1       8.604   0.882   0.413  1.00  0.00     0.162 HD
ENDROOT
TORSDOF 0
ENDMDL
MODEL 2
REMARK VINA RESULT:      -5.5      2.052      5.167
REMARK SMILES O=C1NC2(CCCCC2)Nc2ccccc21
REMARK SMILES IDX 1 1 2 2 3 3 4 4 5 5 6 6 7 7 8 8 9 9 10 10 11 11 12 12 13 13
REMARK SMILES IDX 14 14 15 15 16 16
REMARK H PARENT 3 17 10 18
ROOT
ATOM      1  O   UNL     1       7.131   2.285   4.043  1.00  0.00    -0.269 OA
ATOM      2  C   UNL     1       7.206   1.513   3.060  1.00  0.00     0.255 C 
ATOM      3  N   UNL     1       6.530   1.794   1.841  1.00  0.00    -0.329 N 
ATOM      4  C   UNL     1       6.179   0.689   0.960  1.00  0.00     0.110 C 
ATOM      5  C   UNL     1       5.131  -0.141   1.634  1.00  0.00     0.051 C 
ATOM      6  C   UNL     1       3.765   0.325   1.187  1.00  0.00     0.004 C 
ATOM      7  C   UNL     1       3.643  -0.103  -0.269  1.00  0.00     0.000 C 
ATOM      8  C   UNL     1       4.778   0.352  -1.117  1.00  0.00     0.004 C 
ATOM      9  C   UNL     1       5.799   1.186  -0.390  1.00  0.00     0.051 C 
ATOM     10  N   UNL     1       7.350  -0.190   0.835  1.00  0.00    -0.362 N 
ATOM     11  C   UNL     1       8.053  -0.546   2.008  1.00  0.00     0.049 A 
ATOM     12  C   UNL     1       8.794  -1.705   2.058  1.00  0.00     0.026 A 
ATOM     13  C   UNL     1       9.495  -2.087   3.183  1.00  0.00     0.002 A 
ATOM     14  C   UNL     1       9.421  -1.245   4.274  1.00  0.00     0.001 A 
ATOM     15  C   UNL     1       8.693  -0.073   4.277  1.00  0.00     0.016 A 
ATOM     16  C   UNL     1       8.007   0.273   3.132  1.00  0.00     0.063 A 
ATOM     17  H   UNL     1       6.295   2.800   1.593  1.00  0.00     0.166 HD
ATOM     18  H   UNL     1       7.655  -0.546  -0.108  1.00  0.00     0.162 HD
ENDROOT
TORSDOF 0
ENDMDL
MODEL 3
REMARK VINA RESULT:      -5.4      2.174      3.991
REMARK SMILES O=C1NC2(CCCCC2)Nc2ccccc21
REMARK SMILES IDX 1 1 2 2 3 3 4 4 5 5 6 6 7 7 8 8 9 9 10 10 11 11 12 12 13 13
REMARK SMILES IDX 14 14 15 15 16 16
REMARK H PARENT 3 17 10 18
ROOT
ATOM      1  O   UNL     1       7.422  -0.415   2.531  1.00  0.00    -0.269 OA
ATOM      2  C   UNL     1       7.260  -0.066   1.340  1.00  0.00     0.255 C 
ATOM      3  N   UNL     1       8.366   0.154   0.472  1.00  0.00    -0.329 N 
ATOM      4  C   UNL     1       8.201   1.051  -0.663  1.00  0.00     0.110 C 
ATOM      5  C   UNL     1       8.017   2.444  -0.146  1.00  0.00     0.051 C 
ATOM      6  C   UNL     1       9.357   3.140  -0.106  1.00  0.00     0.004 C 
ATOM      7  C   UNL     1       9.740   3.373  -1.561  1.00  0.00     0.000 C 
ATOM      8  C   UNL     1       9.691   2.140  -2.391  1.00  0.00     0.004 C 
ATOM      9  C   UNL     1       9.322   0.895  -1.629  1.00  0.00     0.051 C 
ATOM     10  N   UNL     1       6.939   0.715  -1.335  1.00  0.00    -0.362 N 
ATOM     11  C   UNL     1       5.785   0.519  -0.543  1.00  0.00     0.049 A 
ATOM     12  C   UNL     1       4.528   0.707  -1.074  1.00  0.00     0.026 A 
ATOM     13  C   UNL     1       3.378   0.525  -0.334  1.00  0.00     0.002 A 
ATOM     14  C   UNL     1       3.543   0.140   0.981  1.00  0.00     0.001 A 
ATOM     15  C   UNL     1       4.778  -0.062   1.561  1.00  0.00     0.016 A 
ATOM     16  C   UNL     1       5.903   0.131   0.788  1.00  0.00     0.063 A 
ATOM     17  H   UNL     1       9.288  -0.338   0.665  1.00  0.00     0.166 HD
ATOM     18  H   UNL     1       6.897   0.625  -2.384  1.00  0.00     0.162 HD
ENDROOT
TORSDOF 0
ENDMDL
MODEL 4
REMARK VINA RESULT:      -5.4      1.922      5.103
REMARK SMILES O=C1NC2(CCCCC2)Nc2ccccc21
REMARK SMILES IDX 1 1 2 2 3 3 4 4 5 5 6 6 7 7 8 8 9 9 10 10 11 11 12 12 13 13
REMARK SMILES IDX 14 14 15 15 16 16
REMARK H PARENT 3 17 10 18
ROOT
ATOM      1  O   UNL     1       9.666   0.440   0.518  1.00  0.00    -0.269 OA
ATOM      2  C   UNL     1       8.551   0.138   1.002  1.00  0.00     0.255 C 
ATOM      3  N   UNL     1       7.465  -0.259   0.173  1.00  0.00    -0.329 N 
ATOM      4  C   UNL     1       6.105  -0.068   0.656  1.00  0.00     0.110 C 
ATOM      5  C   UNL     1       5.829   1.402   0.731  1.00  0.00     0.051 C 
ATOM      6  C   UNL     1       5.173   1.849  -0.554  1.00  0.00     0.004 C 
ATOM      7  C   UNL     1       3.774   1.247  -0.530  1.00  0.00     0.000 C 
ATOM      8  C   UNL     1       3.766  -0.221  -0.291  1.00  0.00     0.004 C 
ATOM      9  C   UNL     1       5.135  -0.836  -0.169  1.00  0.00     0.051 C 
ATOM     10  N   UNL     1       6.038  -0.546   2.044  1.00  0.00    -0.362 N 
ATOM     11  C   UNL     1       7.062  -0.162   2.939  1.00  0.00     0.049 A 
ATOM     12  C   UNL     1       6.830  -0.124   4.296  1.00  0.00     0.026 A 
ATOM     13  C   UNL     1       7.803   0.244   5.202  1.00  0.00     0.002 A 
ATOM     14  C   UNL     1       9.038   0.579   4.683  1.00  0.00     0.001 A 
ATOM     15  C   UNL     1       9.321   0.558   3.334  1.00  0.00     0.016 A 
ATOM     16  C   UNL     1       8.321   0.184   2.461  1.00  0.00     0.063 A 
ATOM     17  H   UNL     1       7.663  -0.688  -0.779  1.00  0.00     0.166 HD
ATOM     18  H   UNL     1       5.243  -1.160   2.362  1.00  0.00     0.162 HD
ENDROOT
TORSDOF 0
ENDMDL
MODEL 5
REMARK VINA RESULT:      -5.3      2.014      2.942
REMARK SMILES O=C1NC2(CCCCC2)Nc2ccccc21
REMARK SMILES IDX 1 1 2 2 3 3 4 4 5 5 6 6 7 7 8 8 9 9 10 10 11 11 12 12 13 13
REMARK SMILES IDX 14 14 15 15 16 16
REMARK H PARENT 3 17 10 18
ROOT
ATOM      1  O   UNL     1       6.090   3.919   1.630  1.00  0.00    -0.269 OA
ATOM      2  C   UNL     1       6.068   2.687   1.855  1.00  0.00     0.255 C 
ATOM      3  N   UNL     1       6.730   2.125   2.981  1.00  0.00    -0.329 N 
ATOM      4  C   UNL     1       7.154   0.734   2.926  1.00  0.00     0.110 C 
ATOM      5  C   UNL     1       8.250   0.610   1.913  1.00  0.00     0.051 C 
ATOM      6  C   UNL     1       9.585   0.732   2.609  1.00  0.00     0.004 C 
ATOM      7  C   UNL     1       9.740  -0.545   3.423  1.00  0.00     0.000 C 
ATOM      8  C   UNL     1       8.582  -0.822   4.316  1.00  0.00     0.004 C 
ATOM      9  C   UNL     1       7.508   0.232   4.281  1.00  0.00     0.051 C 
ATOM     10  N   UNL     1       6.042  -0.066   2.394  1.00  0.00    -0.362 N 
ATOM     11  C   UNL     1       5.358   0.408   1.252  1.00  0.00     0.049 A 
ATOM     12  C   UNL     1       4.692  -0.464   0.420  1.00  0.00     0.026 A 
ATOM     13  C   UNL     1       4.012  -0.041  -0.704  1.00  0.00     0.002 A 
ATOM     14  C   UNL     1       4.028   1.314  -0.963  1.00  0.00     0.001 A 
ATOM     15  C   UNL     1       4.679   2.229  -0.163  1.00  0.00     0.016 A 
ATOM     16  C   UNL     1       5.347   1.766   0.950  1.00  0.00     0.063 A 
ATOM     17  H   UNL     1       6.902   2.726   3.840  1.00  0.00     0.166 HD
ATOM     18  H   UNL     1       5.764  -0.971   2.855  1.00  0.00     0.162 HD
ENDROOT
TORSDOF 0
ENDMDL
MODEL 6
REMARK VINA RESULT:      -5.3      1.909      4.960
REMARK SMILES O=C1NC2(CCCCC2)Nc2ccccc21
REMARK SMILES IDX 1 1 2 2 3 3 4 4 5 5 6 6 7 7 8 8 9 9 10 10 11 11 12 12 13 13
REMARK SMILES IDX 14 14 15 15 16 16
REMARK H PARENT 3 17 10 18
ROOT
ATOM      1  O   UNL     1       3.755  -0.527   0.662  1.00  0.00    -0.269 OA
ATOM      2  C   UNL     1       4.415   0.475   1.019  1.00  0.00     0.255 C 
ATOM      3  N   UNL     1       3.890   1.792   0.897  1.00  0.00    -0.329 N 
ATOM      4  C   UNL     1       4.816   2.910   0.787  1.00  0.00     0.110 C 
ATOM      5  C   UNL     1       5.528   2.810  -0.526  1.00  0.00     0.051 C 
ATOM      6  C   UNL     1       4.793   3.637  -1.554  1.00  0.00     0.004 C 
ATOM      7  C   UNL     1       5.030   5.088  -1.158  1.00  0.00     0.000 C 
ATOM      8  C   UNL     1       4.680   5.379   0.259  1.00  0.00     0.004 C 
ATOM      9  C   UNL     1       4.115   4.203   1.011  1.00  0.00     0.051 C 
ATOM     10  N   UNL     1       5.859   2.747   1.808  1.00  0.00    -0.362 N 
ATOM     11  C   UNL     1       6.456   1.476   1.964  1.00  0.00     0.049 A 
ATOM     12  C   UNL     1       7.723   1.355   2.492  1.00  0.00     0.026 A 
ATOM     13  C   UNL     1       8.340   0.132   2.661  1.00  0.00     0.002 A 
ATOM     14  C   UNL     1       7.624  -0.982   2.271  1.00  0.00     0.001 A 
ATOM     15  C   UNL     1       6.354  -0.915   1.737  1.00  0.00     0.016 A 
ATOM     16  C   UNL     1       5.773   0.325   1.584  1.00  0.00     0.063 A 
ATOM     17  H   UNL     1       2.838   1.937   0.891  1.00  0.00     0.166 HD
ATOM     18  H   UNL     1       6.154   3.561   2.409  1.00  0.00     0.162 HD
ENDROOT
TORSDOF 0
ENDMDL
MODEL 7
REMARK VINA RESULT:      -5.3      2.428      4.622
REMARK SMILES O=C1NC2(CCCCC2)Nc2ccccc21
REMARK SMILES IDX 1 1 2 2 3 3 4 4 5 5 6 6 7 7 8 8 9 9 10 10 11 11 12 12 13 13
REMARK SMILES IDX 14 14 15 15 16 16
REMARK H PARENT 3 17 10 18
ROOT
ATOM      1  O   UNL     1       8.089   1.186   2.460  1.00  0.00    -0.269 OA
ATOM      2  C   UNL     1       7.817   1.002   1.252  1.00  0.00     0.255 C 
ATOM      3  N   UNL     1       8.801   1.156   0.237  1.00  0.00    -0.329 N 
ATOM      4  C   UNL     1       8.372   1.480  -1.116  1.00  0.00     0.110 C 
ATOM      5  C   UNL     1       7.806   2.866  -1.116  1.00  0.00     0.051 C 
ATOM      6  C   UNL     1       8.893   3.846  -1.490  1.00  0.00     0.004 C 
ATOM      7  C   UNL     1       9.173   3.602  -2.966  1.00  0.00     0.000 C 
ATOM      8  C   UNL     1       9.465   2.179  -3.286  1.00  0.00     0.004 C 
ATOM      9  C   UNL     1       9.477   1.265  -2.089  1.00  0.00     0.051 C 
ATOM     10  N   UNL     1       7.248   0.601  -1.466  1.00  0.00    -0.362 N 
ATOM     11  C   UNL     1       6.210   0.428  -0.523  1.00  0.00     0.049 A 
ATOM     12  C   UNL     1       4.944   0.069  -0.930  1.00  0.00     0.026 A 
ATOM     13  C   UNL     1       3.905  -0.110  -0.041  1.00  0.00     0.002 A 
ATOM     14  C   UNL     1       4.191   0.088   1.295  1.00  0.00     0.001 A 
ATOM     15  C   UNL     1       5.440   0.448   1.755  1.00  0.00     0.016 A 
ATOM     16  C   UNL     1       6.452   0.618   0.834  1.00  0.00     0.063 A 
ATOM     17  H   UNL     1       9.828   1.030   0.481  1.00  0.00     0.166 HD
ATOM     18  H   UNL     1       7.219   0.113  -2.399  1.00  0.00     0.162 HD
ENDROOT
TORSDOF 0
ENDMDL
MODEL 8
REMARK VINA RESULT:      -5.2      2.386      4.431
REMARK SMILES O=C1NC2(CCCCC2)Nc2ccccc21
REMARK SMILES IDX 1 1 2 2 3 3 4 4 5 5 6 6 7 7 8 8 9 9 10 10 11 11 12 12 13 13
REMARK SMILES IDX 14 14 15 15 16 16
REMARK H PARENT 3 17 10 18
ROOT
ATOM      1  O   UNL     1       6.984   1.099   2.797  1.00  0.00    -0.269 OA
ATOM      2  C   UNL     1       6.881   1.354   1.575  1.00  0.00     0.255 C 
ATOM      3  N   UNL     1       7.932   1.991   0.859  1.00  0.00    -0.329 N 
ATOM      4  C   UNL     1       7.606   2.748  -0.341  1.00  0.00     0.110 C 
ATOM      5  C   UNL     1       6.817   3.957   0.059  1.00  0.00     0.051 C 
ATOM      6  C   UNL     1       7.757   5.125   0.243  1.00  0.00     0.004 C 
ATOM      7  C   UNL     1       8.235   5.489  -1.156  1.00  0.00     0.000 C 
ATOM      8  C   UNL     1       8.797   4.335  -1.908  1.00  0.00     0.004 C 
ATOM      9  C   UNL     1       8.831   3.046  -1.130  1.00  0.00     0.051 C 
ATOM     10  N   UNL     1       6.692   1.942  -1.161  1.00  0.00    -0.362 N 
ATOM     11  C   UNL     1       5.600   1.307  -0.526  1.00  0.00     0.049 A 
ATOM     12  C   UNL     1       4.466   0.984  -1.237  1.00  0.00     0.026 A 
ATOM     13  C   UNL     1       3.380   0.363  -0.655  1.00  0.00     0.002 A 
ATOM     14  C   UNL     1       3.479   0.076   0.692  1.00  0.00     0.001 A 
ATOM     15  C   UNL     1       4.592   0.379   1.449  1.00  0.00     0.016 A 
ATOM     16  C   UNL     1       5.656   0.999   0.829  1.00  0.00     0.063 A 
ATOM     17  H   UNL     1       8.932   1.903   1.208  1.00  0.00     0.166 HD
ATOM     18  H   UNL     1       6.848   1.841  -2.198  1.00  0.00     0.162 HD
ENDROOT
TORSDOF 0
ENDMDL
MODEL 9
REMARK VINA RESULT:      -5.0      2.133      4.997
REMARK SMILES O=C1NC2(CCCCC2)Nc2ccccc21
REMARK SMILES IDX 1 1 2 2 3 3 4 4 5 5 6 6 7 7 8 8 9 9 10 10 11 11 12 12 13 13
REMARK SMILES IDX 14 14 15 15 16 16
REMARK H PARENT 3 17 10 18
ROOT
ATOM      1  O   UNL     1       9.029   2.634   0.212  1.00  0.00    -0.269 OA
ATOM      2  C   UNL     1       8.334   1.658   0.577  1.00  0.00     0.255 C 
ATOM      3  N   UNL     1       7.291   1.141  -0.240  1.00  0.00    -0.329 N 
ATOM      4  C   UNL     1       6.192   0.426   0.392  1.00  0.00     0.110 C 
ATOM      5  C   UNL     1       5.401   1.397   1.212  1.00  0.00     0.051 C 
ATOM      6  C   UNL     1       4.254   1.927   0.383  1.00  0.00     0.004 C 
ATOM      7  C   UNL     1       3.288   0.759   0.227  1.00  0.00     0.000 C 
ATOM      8  C   UNL     1       3.933  -0.475  -0.297  1.00  0.00     0.004 C 
ATOM      9  C   UNL     1       5.395  -0.322  -0.618  1.00  0.00     0.051 C 
ATOM     10  N   UNL     1       6.757  -0.527   1.357  1.00  0.00    -0.362 N 
ATOM     11  C   UNL     1       7.773  -0.077   2.230  1.00  0.00     0.049 A 
ATOM     12  C   UNL     1       7.985  -0.700   3.441  1.00  0.00     0.026 A 
ATOM     13  C   UNL     1       8.966  -0.292   4.321  1.00  0.00     0.002 A 
ATOM     14  C   UNL     1       9.739   0.783   3.931  1.00  0.00     0.001 A 
ATOM     15  C   UNL     1       9.568   1.441   2.731  1.00  0.00     0.016 A 
ATOM     16  C   UNL     1       8.576   1.003   1.880  1.00  0.00     0.063 A 
ATOM     17  H   UNL     1       7.331   1.284  -1.292  1.00  0.00     0.166 HD
ATOM     18  H   UNL     1       6.411  -1.521   1.396  1.00  0.00     0.162 HD
ENDROOT
TORSDOF 0
ENDMDL
