MODEL 1
REMARK VINA RESULT:      -4.3      0.000      0.000
REMARK SMILES COc1cc(C(=O)N=c2nccc[nH]2)cc(OC)c1OC
REMARK SMILES IDX 6 1 7 2 5 3 3 4 4 5 19 6 16 7 15 8 2 9 1 10 20 11 21 12
REMARK SMILES IDX 17 13 18 14 8 15 9 16 10 17 14 18 11 19 13 20 12 21
REMARK H PARENT 14 22
ROOT
ATOM      1  C   UNL     1       5.050   0.166   1.147  1.00  0.00     0.280 C 
ATOM      2  O   UNL     1       3.852  -0.125   1.410  1.00  0.00    -0.267 OA
ENDROOT
BRANCH   1   3
ATOM      3  C   UNL     1       5.426   1.492   0.607  1.00  0.00     0.049 A 
ATOM      4  C   UNL     1       5.199   3.834   0.467  1.00  0.00     0.165 A 
ATOM      5  C   UNL     1       4.786   2.641   1.022  1.00  0.00     0.064 A 
ATOM      6  C   UNL     1       6.225   3.852  -0.476  1.00  0.00     0.203 A 
ATOM      7  C   UNL     1       6.862   2.698  -0.888  1.00  0.00     0.165 A 
ATOM      8  C   UNL     1       6.441   1.489  -0.324  1.00  0.00     0.064 A 
BRANCH   4   9
ATOM      9  O   UNL     1       4.640   5.047   0.801  1.00  0.00    -0.493 OA
ATOM     10  C   UNL     1       4.240   5.263   2.139  1.00  0.00     0.278 C 
ENDBRANCH   4   9
BRANCH   6  11
ATOM     11  O   UNL     1       6.650   5.069  -1.045  1.00  0.00    -0.490 OA
ATOM     12  C   UNL     1       7.676   5.811  -0.371  1.00  0.00     0.278 C 
ENDBRANCH   6  11
BRANCH   7  13
ATOM     13  O   UNL     1       7.861   2.780  -1.816  1.00  0.00    -0.493 OA
ATOM     14  C   UNL     1       8.963   1.948  -1.945  1.00  0.00     0.278 C 
ENDBRANCH   7  13
ENDBRANCH   1   3
BRANCH   1  15
ATOM     15  N   UNL     1       6.131  -0.740   1.344  1.00  0.00    -0.172 NA
BRANCH  15  16
ATOM     16  C   UNL     1       6.874  -0.701   2.375  1.00  0.00     0.230 A 
ATOM     17  N   UNL     1       8.227  -0.756   2.320  1.00  0.00    -0.221 NA
ATOM     18  N   UNL     1       6.253  -0.599   3.580  1.00  0.00    -0.331 N 
ATOM     19  C   UNL     1       8.933  -0.707   3.471  1.00  0.00     0.116 A 
ATOM     20  C   UNL     1       6.938  -0.551   4.736  1.00  0.00     0.087 A 
ATOM     21  C   UNL     1       8.324  -0.605   4.713  1.00  0.00     0.038 A 
ATOM     22  H   UNL     1       5.215  -0.556   3.637  1.00  0.00     0.169 HD
ENDBRANCH  15  16
ENDBRANCH   1  15
TORSDOF 6
ENDMDL
MODEL 2
REMARK VINA RESULT:      -4.2      0.940      2.923
REMARK SMILES COc1cc(C(=O)N=c2nccc[nH]2)cc(OC)c1OC
REMARK SMILES IDX 6 1 7 2 5 3 3 4 4 5 19 6 16 7 15 8 2 9 1 10 20 11 21 12
REMARK SMILES IDX 17 13 18 14 8 15 9 16 10 17 14 18 11 19 13 20 12 21
REMARK H PARENT 14 22
ROOT
ATOM      1  C   UNL     1       4.548   0.235   0.897  1.00  0.00     0.280 C 
ATOM      2  O   UNL     1       3.682  -0.387   0.224  1.00  0.00    -0.267 OA
ENDROOT
BRANCH   1   3
ATOM      3  C   UNL     1       5.221   1.442   0.368  1.00  0.00     0.049 A 
ATOM      4  C   UNL     1       6.880   2.518  -0.916  1.00  0.00     0.165 A 
ATOM      5  C   UNL     1       6.313   1.343  -0.470  1.00  0.00     0.064 A 
ATOM      6  C   UNL     1       6.353   3.747  -0.522  1.00  0.00     0.203 A 
ATOM      7  C   UNL     1       5.260   3.839   0.316  1.00  0.00     0.165 A 
ATOM      8  C   UNL     1       4.687   2.646   0.768  1.00  0.00     0.064 A 
BRANCH   4   9
ATOM      9  O   UNL     1       7.971   2.550  -1.755  1.00  0.00    -0.493 OA
ATOM     10  C   UNL     1       9.009   1.613  -1.552  1.00  0.00     0.278 C 
ENDBRANCH   4   9
BRANCH   6  11
ATOM     11  O   UNL     1       6.929   4.949  -0.976  1.00  0.00    -0.490 OA
ATOM     12  C   UNL     1       8.031   5.496  -0.237  1.00  0.00     0.278 C 
ENDBRANCH   6  11
BRANCH   7  13
ATOM     13  O   UNL     1       4.788   5.073   0.668  1.00  0.00    -0.493 OA
ATOM     14  C   UNL     1       3.801   5.812   0.033  1.00  0.00     0.278 C 
ENDBRANCH   7  13
ENDBRANCH   1   3
BRANCH   1  15
ATOM     15  N   UNL     1       4.949  -0.162   2.205  1.00  0.00    -0.172 NA
BRANCH  15  16
ATOM     16  C   UNL     1       6.170  -0.285   2.536  1.00  0.00     0.230 A 
ATOM     17  N   UNL     1       6.987  -1.238   2.025  1.00  0.00    -0.221 NA
ATOM     18  N   UNL     1       6.654   0.598   3.449  1.00  0.00    -0.331 N 
ATOM     19  C   UNL     1       8.272  -1.290   2.438  1.00  0.00     0.116 A 
ATOM     20  C   UNL     1       7.930   0.562   3.873  1.00  0.00     0.087 A 
ATOM     21  C   UNL     1       8.791  -0.402   3.369  1.00  0.00     0.038 A 
ATOM     22  H   UNL     1       6.038   1.335   3.849  1.00  0.00     0.169 HD
ENDBRANCH  15  16
ENDBRANCH   1  15
TORSDOF 6
ENDMDL
MODEL 3
REMARK VINA RESULT:      -4.2      0.983      1.295
REMARK SMILES COc1cc(C(=O)N=c2nccc[nH]2)cc(OC)c1OC
REMARK SMILES IDX 6 1 7 2 5 3 3 4 4 5 19 6 16 7 15 8 2 9 1 10 20 11 21 12
REMARK SMILES IDX 17 13 18 14 8 15 9 16 10 17 14 18 11 19 13 20 12 21
REMARK H PARENT 14 22
ROOT
ATOM      1  C   UNL     1       4.912  -0.002   0.948  1.00  0.00     0.280 C 
ATOM      2  O   UNL     1       4.204  -0.644   0.126  1.00  0.00    -0.267 OA
ENDROOT
BRANCH   1   3
ATOM      3  C   UNL     1       5.531   1.294   0.592  1.00  0.00     0.049 A 
ATOM      4  C   UNL     1       5.559   3.650   0.525  1.00  0.00     0.165 A 
ATOM      5  C   UNL     1       4.912   2.490   0.893  1.00  0.00     0.064 A 
ATOM      6  C   UNL     1       6.791   3.593  -0.126  1.00  0.00     0.203 A 
ATOM      7  C   UNL     1       7.405   2.393  -0.425  1.00  0.00     0.165 A 
ATOM      8  C   UNL     1       6.747   1.217  -0.051  1.00  0.00     0.064 A 
BRANCH   4   9
ATOM      9  O   UNL     1       5.045   4.903   0.771  1.00  0.00    -0.493 OA
ATOM     10  C   UNL     1       4.034   5.399  -0.082  1.00  0.00     0.278 C 
ENDBRANCH   4   9
BRANCH   6  11
ATOM     11  O   UNL     1       7.454   4.776  -0.503  1.00  0.00    -0.490 OA
ATOM     12  C   UNL     1       8.335   5.392   0.446  1.00  0.00     0.278 C 
ENDBRANCH   6  11
BRANCH   7  13
ATOM     13  O   UNL     1       8.612   2.400  -1.066  1.00  0.00    -0.493 OA
ATOM     14  C   UNL     1       8.908   1.877  -2.316  1.00  0.00     0.278 C 
ENDBRANCH   7  13
ENDBRANCH   1   3
BRANCH   1  15
ATOM     15  N   UNL     1       5.173  -0.458   2.273  1.00  0.00    -0.172 NA
BRANCH  15  16
ATOM     16  C   UNL     1       6.352  -0.564   2.737  1.00  0.00     0.230 A 
ATOM     17  N   UNL     1       6.817   0.186   3.766  1.00  0.00    -0.221 NA
ATOM     18  N   UNL     1       7.165  -1.483   2.152  1.00  0.00    -0.331 N 
ATOM     19  C   UNL     1       8.086   0.002   4.190  1.00  0.00     0.116 A 
ATOM     20  C   UNL     1       8.432  -1.679   2.559  1.00  0.00     0.087 A 
ATOM     21  C   UNL     1       8.937  -0.928   3.609  1.00  0.00     0.038 A 
ATOM     22  H   UNL     1       6.821  -2.065   1.361  1.00  0.00     0.169 HD
ENDBRANCH  15  16
ENDBRANCH   1  15
TORSDOF 6
ENDMDL
MODEL 4
REMARK VINA RESULT:      -4.2      0.982      3.059
REMARK SMILES COc1cc(C(=O)N=c2nccc[nH]2)cc(OC)c1OC
REMARK SMILES IDX 6 1 7 2 5 3 3 4 4 5 19 6 16 7 15 8 2 9 1 10 20 11 21 12
REMARK SMILES IDX 17 13 18 14 8 15 9 16 10 17 14 18 11 19 13 20 12 21
REMARK H PARENT 14 22
ROOT
ATOM      1  C   UNL     1       5.118  -0.024   0.864  1.00  0.00     0.280 C 
ATOM      2  O   UNL     1       4.442  -0.584  -0.040  1.00  0.00    -0.267 OA
ENDROOT
BRANCH   1   3
ATOM      3  C   UNL     1       5.751   1.298   0.653  1.00  0.00     0.049 A 
ATOM      4  C   UNL     1       7.439   2.693  -0.220  1.00  0.00     0.165 A 
ATOM      5  C   UNL     1       6.917   1.425  -0.073  1.00  0.00     0.064 A 
ATOM      6  C   UNL     1       6.796   3.789   0.353  1.00  0.00     0.203 A 
ATOM      7  C   UNL     1       5.629   3.655   1.079  1.00  0.00     0.165 A 
ATOM      8  C   UNL     1       5.102   2.368   1.227  1.00  0.00     0.064 A 
BRANCH   4   9
ATOM      9  O   UNL     1       8.595   2.948  -0.922  1.00  0.00    -0.493 OA
ATOM     10  C   UNL     1       8.569   2.844  -2.331  1.00  0.00     0.278 C 
ENDBRANCH   4   9
BRANCH   6  11
ATOM     11  O   UNL     1       7.326   5.085   0.205  1.00  0.00    -0.490 OA
ATOM     12  C   UNL     1       6.968   5.835  -0.965  1.00  0.00     0.278 C 
ENDBRANCH   6  11
BRANCH   7  13
ATOM     13  O   UNL     1       5.044   4.767   1.618  1.00  0.00    -0.493 OA
ATOM     14  C   UNL     1       5.026   5.149   2.951  1.00  0.00     0.278 C 
ENDBRANCH   7  13
ENDBRANCH   1   3
BRANCH   1  15
ATOM     15  N   UNL     1       5.330  -0.602   2.149  1.00  0.00    -0.172 NA
BRANCH  15  16
ATOM     16  C   UNL     1       6.490  -0.744   2.649  1.00  0.00     0.230 A 
ATOM     17  N   UNL     1       6.907  -0.089   3.761  1.00  0.00    -0.221 NA
ATOM     18  N   UNL     1       7.335  -1.601   2.017  1.00  0.00    -0.331 N 
ATOM     19  C   UNL     1       8.159  -0.305   4.218  1.00  0.00     0.116 A 
ATOM     20  C   UNL     1       8.585  -1.828   2.456  1.00  0.00     0.087 A 
ATOM     21  C   UNL     1       9.041  -1.173   3.591  1.00  0.00     0.038 A 
ATOM     22  H   UNL     1       7.028  -2.110   1.163  1.00  0.00     0.169 HD
ENDBRANCH  15  16
ENDBRANCH   1  15
TORSDOF 6
ENDMDL
MODEL 5
REMARK VINA RESULT:      -4.1      1.121      3.119
REMARK SMILES COc1cc(C(=O)N=c2nccc[nH]2)cc(OC)c1OC
REMARK SMILES IDX 6 1 7 2 5 3 3 4 4 5 19 6 16 7 15 8 2 9 1 10 20 11 21 12
REMARK SMILES IDX 17 13 18 14 8 15 9 16 10 17 14 18 11 19 13 20 12 21
REMARK H PARENT 14 22
ROOT
ATOM      1  C   UNL     1       5.211  -0.204   0.852  1.00  0.00     0.280 C 
ATOM      2  O   UNL     1       4.392  -0.811   0.110  1.00  0.00    -0.267 OA
ENDROOT
BRANCH   1   3
ATOM      3  C   UNL     1       5.980   0.963   0.364  1.00  0.00     0.049 A 
ATOM      4  C   UNL     1       7.845   1.944  -0.693  1.00  0.00     0.165 A 
ATOM      5  C   UNL     1       7.195   0.804  -0.271  1.00  0.00     0.064 A 
ATOM      6  C   UNL     1       7.278   3.199  -0.473  1.00  0.00     0.203 A 
ATOM      7  C   UNL     1       6.063   3.351   0.164  1.00  0.00     0.165 A 
ATOM      8  C   UNL     1       5.405   2.193   0.591  1.00  0.00     0.064 A 
BRANCH   4   9
ATOM      9  O   UNL     1       9.060   1.916  -1.339  1.00  0.00    -0.493 OA
ATOM     10  C   UNL     1       9.082   1.677  -2.731  1.00  0.00     0.278 C 
ENDBRANCH   4   9
BRANCH   6  11
ATOM     11  O   UNL     1       7.940   4.366  -0.902  1.00  0.00    -0.490 OA
ATOM     12  C   UNL     1       8.862   4.994  -0.001  1.00  0.00     0.278 C 
ENDBRANCH   6  11
BRANCH   7  13
ATOM     13  O   UNL     1       5.558   4.608   0.351  1.00  0.00    -0.493 OA
ATOM     14  C   UNL     1       4.237   4.961   0.581  1.00  0.00     0.278 C 
ENDBRANCH   7  13
ENDBRANCH   1   3
BRANCH   1  15
ATOM     15  N   UNL     1       5.464  -0.578   2.203  1.00  0.00    -0.172 NA
BRANCH  15  16
ATOM     16  C   UNL     1       6.641  -0.699   2.667  1.00  0.00     0.230 A 
ATOM     17  N   UNL     1       7.139   0.093   3.648  1.00  0.00    -0.221 NA
ATOM     18  N   UNL     1       7.416  -1.681   2.136  1.00  0.00    -0.331 N 
ATOM     19  C   UNL     1       8.404  -0.112   4.077  1.00  0.00     0.116 A 
ATOM     20  C   UNL     1       8.677  -1.899   2.548  1.00  0.00     0.087 A 
ATOM     21  C   UNL     1       9.216  -1.105   3.550  1.00  0.00     0.038 A 
ATOM     22  H   UNL     1       7.046  -2.296   1.383  1.00  0.00     0.169 HD
ENDBRANCH  15  16
ENDBRANCH   1  15
TORSDOF 6
ENDMDL
MODEL 6
REMARK VINA RESULT:      -3.9      1.149      1.448
REMARK SMILES COc1cc(C(=O)N=c2nccc[nH]2)cc(OC)c1OC
REMARK SMILES IDX 6 1 7 2 5 3 3 4 4 5 19 6 16 7 15 8 2 9 1 10 20 11 21 12
REMARK SMILES IDX 17 13 18 14 8 15 9 16 10 17 14 18 11 19 13 20 12 21
REMARK H PARENT 14 22
ROOT
ATOM      1  C   UNL     1       5.296   0.072   1.381  1.00  0.00     0.280 C 
ATOM      2  O   UNL     1       4.413  -0.402   0.616  1.00  0.00    -0.267 OA
ENDROOT
BRANCH   1   3
ATOM      3  C   UNL     1       5.991   1.341   1.070  1.00  0.00     0.049 A 
ATOM      4  C   UNL     1       6.284   3.671   1.281  1.00  0.00     0.165 A 
ATOM      5  C   UNL     1       5.580   2.536   1.624  1.00  0.00     0.064 A 
ATOM      6  C   UNL     1       7.366   3.589   0.405  1.00  0.00     0.203 A 
ATOM      7  C   UNL     1       7.772   2.390  -0.145  1.00  0.00     0.165 A 
ATOM      8  C   UNL     1       7.057   1.240   0.204  1.00  0.00     0.064 A 
BRANCH   4   9
ATOM      9  O   UNL     1       5.971   4.920   1.767  1.00  0.00    -0.493 OA
ATOM     10  C   UNL     1       4.858   5.052   2.627  1.00  0.00     0.278 C 
ENDBRANCH   4   9
BRANCH   6  11
ATOM     11  O   UNL     1       8.087   4.746   0.053  1.00  0.00    -0.490 OA
ATOM     12  C   UNL     1       7.708   5.445  -1.142  1.00  0.00     0.278 C 
ENDBRANCH   6  11
BRANCH   7  13
ATOM     13  O   UNL     1       8.841   2.373  -0.998  1.00  0.00    -0.493 OA
ATOM     14  C   UNL     1       9.007   1.585  -2.127  1.00  0.00     0.278 C 
ENDBRANCH   7  13
ENDBRANCH   1   3
BRANCH   1  15
ATOM     15  N   UNL     1       5.697  -0.561   2.593  1.00  0.00    -0.172 NA
BRANCH  15  16
ATOM     16  C   UNL     1       6.918  -0.734   2.900  1.00  0.00     0.230 A 
ATOM     17  N   UNL     1       7.548  -0.031   3.872  1.00  0.00    -0.221 NA
ATOM     18  N   UNL     1       7.603  -1.678   2.201  1.00  0.00    -0.331 N 
ATOM     19  C   UNL     1       8.850  -0.285   4.127  1.00  0.00     0.116 A 
ATOM     20  C   UNL     1       8.899  -1.945   2.439  1.00  0.00     0.087 A 
ATOM     21  C   UNL     1       9.571  -1.242   3.428  1.00  0.00     0.038 A 
ATOM     22  H   UNL     1       7.131  -2.225   1.452  1.00  0.00     0.169 HD
ENDBRANCH  15  16
ENDBRANCH   1  15
TORSDOF 6
ENDMDL
MODEL 7
REMARK VINA RESULT:      -3.7      2.831      5.751
REMARK SMILES COc1cc(C(=O)N=c2nccc[nH]2)cc(OC)c1OC
REMARK SMILES IDX 6 1 7 2 5 3 3 4 4 5 19 6 16 7 15 8 2 9 1 10 20 11 21 12
REMARK SMILES IDX 17 13 18 14 8 15 9 16 10 17 14 18 11 19 13 20 12 21
REMARK H PARENT 14 22
ROOT
ATOM      1  C   UNL     1       4.384   0.609   0.349  1.00  0.00     0.280 C 
ATOM      2  O   UNL     1       3.402  -0.157   0.542  1.00  0.00    -0.267 OA
ENDROOT
BRANCH   1   3
ATOM      3  C   UNL     1       5.735   0.282   0.859  1.00  0.00     0.049 A 
ATOM      4  C   UNL     1       8.052  -0.048   0.579  1.00  0.00     0.165 A 
ATOM      5  C   UNL     1       6.831   0.267   0.021  1.00  0.00     0.064 A 
ATOM      6  C   UNL     1       8.150  -0.338   1.939  1.00  0.00     0.203 A 
ATOM      7  C   UNL     1       7.049  -0.322   2.772  1.00  0.00     0.165 A 
ATOM      8  C   UNL     1       5.811  -0.002   2.204  1.00  0.00     0.064 A 
BRANCH   4   9
ATOM      9  O   UNL     1       9.218  -0.094  -0.152  1.00  0.00    -0.493 OA
ATOM     10  C   UNL     1       9.376   0.803  -1.232  1.00  0.00     0.278 C 
ENDBRANCH   4   9
BRANCH   6  11
ATOM     11  O   UNL     1       9.396  -0.661   2.512  1.00  0.00    -0.490 OA
ATOM     12  C   UNL     1       9.736  -2.046   2.662  1.00  0.00     0.278 C 
ENDBRANCH   6  11
BRANCH   7  13
ATOM     13  O   UNL     1       7.207  -0.616   4.097  1.00  0.00    -0.493 OA
ATOM     14  C   UNL     1       7.208   0.270   5.164  1.00  0.00     0.278 C 
ENDBRANCH   7  13
ENDBRANCH   1   3
BRANCH   1  15
ATOM     15  N   UNL     1       4.284   1.837  -0.366  1.00  0.00    -0.172 NA
BRANCH  15  16
ATOM     16  C   UNL     1       4.798   2.918   0.063  1.00  0.00     0.230 A 
ATOM     17  N   UNL     1       4.571   3.409   1.305  1.00  0.00    -0.221 NA
ATOM     18  N   UNL     1       5.611   3.596  -0.790  1.00  0.00    -0.331 N 
ATOM     19  C   UNL     1       5.161   4.568   1.671  1.00  0.00     0.116 A 
ATOM     20  C   UNL     1       6.206   4.751  -0.445  1.00  0.00     0.087 A 
ATOM     21  C   UNL     1       5.994   5.279   0.820  1.00  0.00     0.038 A 
ATOM     22  H   UNL     1       5.794   3.231  -1.747  1.00  0.00     0.169 HD
ENDBRANCH  15  16
ENDBRANCH   1  15
TORSDOF 6
ENDMDL
MODEL 8
REMARK VINA RESULT:      -3.6      1.563      2.039
REMARK SMILES COc1cc(C(=O)N=c2nccc[nH]2)cc(OC)c1OC
REMARK SMILES IDX 6 1 7 2 5 3 3 4 4 5 19 6 16 7 15 8 2 9 1 10 20 11 21 12
REMARK SMILES IDX 17 13 18 14 8 15 9 16 10 17 14 18 11 19 13 20 12 21
REMARK H PARENT 14 22
ROOT
ATOM      1  C   UNL     1       5.012   0.281   1.241  1.00  0.00     0.280 C 
ATOM      2  O   UNL     1       3.805  -0.005   1.462  1.00  0.00    -0.267 OA
ENDROOT
BRANCH   1   3
ATOM      3  C   UNL     1       5.423   1.641   0.824  1.00  0.00     0.049 A 
ATOM      4  C   UNL     1       5.302   3.519  -0.596  1.00  0.00     0.165 A 
ATOM      5  C   UNL     1       4.861   2.252  -0.278  1.00  0.00     0.064 A 
ATOM      6  C   UNL     1       6.281   4.138   0.180  1.00  0.00     0.203 A 
ATOM      7  C   UNL     1       6.840   3.521   1.281  1.00  0.00     0.165 A 
ATOM      8  C   UNL     1       6.391   2.236   1.602  1.00  0.00     0.064 A 
BRANCH   4   9
ATOM      9  O   UNL     1       4.817   4.231  -1.670  1.00  0.00    -0.493 OA
ATOM     10  C   UNL     1       3.887   5.266  -1.430  1.00  0.00     0.278 C 
ENDBRANCH   4   9
BRANCH   6  11
ATOM     11  O   UNL     1       6.734   5.432  -0.142  1.00  0.00    -0.490 OA
ATOM     12  C   UNL     1       7.953   5.559  -0.887  1.00  0.00     0.278 C 
ENDBRANCH   6  11
BRANCH   7  13
ATOM     13  O   UNL     1       7.797   4.179   2.003  1.00  0.00    -0.493 OA
ATOM     14  C   UNL     1       7.729   4.574   3.331  1.00  0.00     0.278 C 
ENDBRANCH   7  13
ENDBRANCH   1   3
BRANCH   1  15
ATOM     15  N   UNL     1       6.073  -0.662   1.371  1.00  0.00    -0.172 NA
BRANCH  15  16
ATOM     16  C   UNL     1       6.829  -0.700   2.392  1.00  0.00     0.230 A 
ATOM     17  N   UNL     1       8.179  -0.790   2.315  1.00  0.00    -0.221 NA
ATOM     18  N   UNL     1       6.227  -0.645   3.609  1.00  0.00    -0.331 N 
ATOM     19  C   UNL     1       8.901  -0.825   3.456  1.00  0.00     0.116 A 
ATOM     20  C   UNL     1       6.927  -0.679   4.756  1.00  0.00     0.087 A 
ATOM     21  C   UNL     1       8.310  -0.772   4.711  1.00  0.00     0.038 A 
ATOM     22  H   UNL     1       5.192  -0.575   3.683  1.00  0.00     0.169 HD
ENDBRANCH  15  16
ENDBRANCH   1  15
TORSDOF 6
ENDMDL
MODEL 9
REMARK VINA RESULT:      -3.5      3.038      5.792
REMARK SMILES COc1cc(C(=O)N=c2nccc[nH]2)cc(OC)c1OC
REMARK SMILES IDX 6 1 7 2 5 3 3 4 4 5 19 6 16 7 15 8 2 9 1 10 20 11 21 12
REMARK SMILES IDX 17 13 18 14 8 15 9 16 10 17 14 18 11 19 13 20 12 21
REMARK H PARENT 14 22
ROOT
ATOM      1  C   UNL     1       5.190   0.399   0.584  1.00  0.00     0.280 C 
ATOM      2  O   UNL     1       4.201  -0.300   0.934  1.00  0.00    -0.267 OA
ENDROOT
BRANCH   1   3
ATOM      3  C   UNL     1       6.391   0.526   1.439  1.00  0.00     0.049 A 
ATOM      4  C   UNL     1       8.560  -0.113   2.107  1.00  0.00     0.165 A 
ATOM      5  C   UNL     1       7.483  -0.300   1.267  1.00  0.00     0.064 A 
ATOM      6  C   UNL     1       8.524   0.879   3.086  1.00  0.00     0.203 A 
ATOM      7  C   UNL     1       7.429   1.703   3.253  1.00  0.00     0.165 A 
ATOM      8  C   UNL     1       6.337   1.511   2.400  1.00  0.00     0.064 A 
BRANCH   4   9
ATOM      9  O   UNL     1       9.705  -0.873   2.033  1.00  0.00    -0.493 OA
ATOM     10  C   UNL     1       9.681  -2.186   2.554  1.00  0.00     0.278 C 
ENDBRANCH   4   9
BRANCH   6  11
ATOM     11  O   UNL     1       9.623   1.072   3.945  1.00  0.00    -0.490 OA
ATOM     12  C   UNL     1       9.615   0.409   5.217  1.00  0.00     0.278 C 
ENDBRANCH   6  11
BRANCH   7  13
ATOM     13  O   UNL     1       7.453   2.657   4.231  1.00  0.00    -0.493 OA
ATOM     14  C   UNL     1       7.549   4.031   4.067  1.00  0.00     0.278 C 
ENDBRANCH   7  13
ENDBRANCH   1   3
BRANCH   1  15
ATOM     15  N   UNL     1       5.238   1.118  -0.645  1.00  0.00    -0.172 NA
BRANCH  15  16
ATOM     16  C   UNL     1       5.519   2.356  -0.700  1.00  0.00     0.230 A 
ATOM     17  N   UNL     1       6.736   2.828  -1.066  1.00  0.00    -0.221 NA
ATOM     18  N   UNL     1       4.530   3.228  -0.370  1.00  0.00    -0.331 N 
ATOM     19  C   UNL     1       6.940   4.163  -1.094  1.00  0.00     0.116 A 
ATOM     20  C   UNL     1       4.714   4.560  -0.390  1.00  0.00     0.087 A 
ATOM     21  C   UNL     1       5.948   5.074  -0.760  1.00  0.00     0.038 A 
ATOM     22  H   UNL     1       3.592   2.880  -0.087  1.00  0.00     0.169 HD
ENDBRANCH  15  16
ENDBRANCH   1  15
TORSDOF 6
ENDMDL
