MODEL 1
REMARK VINA RESULT:      -3.2      0.000      0.000
REMARK SMILES COc1cc2c(cc1OC)-c1c(OC)c(OC)cc(=O)n1CC2
REMARK SMILES IDX 3 1 4 2 5 3 6 4 7 5 8 6 11 7 12 8 15 9 18 10 19 11 20 12
REMARK SMILES IDX 21 13 22 14 23 15 2 16 1 17 9 18 10 19 13 20 14 21 16 22
REMARK SMILES IDX 17 23
REMARK H PARENT
ROOT
ATOM      1  C   UNL     1       8.002   1.781   3.827  1.00  0.00     0.161 A 
ATOM      2  C   UNL     1       7.364   0.748   3.199  1.00  0.00     0.055 A 
ATOM      3  C   UNL     1       6.621   1.080   2.056  1.00  0.00    -0.033 A 
ATOM      4  C   UNL     1       6.535   2.368   1.588  1.00  0.00     0.009 A 
ATOM      5  C   UNL     1       7.201   3.349   2.272  1.00  0.00     0.061 A 
ATOM      6  C   UNL     1       7.962   3.088   3.420  1.00  0.00     0.161 A 
ATOM      7  C   UNL     1       5.683   2.631   0.447  1.00  0.00     0.098 A 
ATOM      8  C   UNL     1       5.577   3.891  -0.059  1.00  0.00     0.185 A 
ATOM      9  C   UNL     1       4.741   4.135  -1.160  1.00  0.00     0.168 A 
ATOM     10  C   UNL     1       4.032   3.115  -1.736  1.00  0.00     0.122 A 
ATOM     11  C   UNL     1       4.169   1.860  -1.200  1.00  0.00     0.254 A 
ATOM     12  O   UNL     1       3.518   0.931  -1.734  1.00  0.00    -0.269 OA
ATOM     13  N   UNL     1       4.991   1.638  -0.120  1.00  0.00    -0.304 N 
ATOM     14  C   UNL     1       5.008   0.256   0.321  1.00  0.00     0.131 C 
ATOM     15  C   UNL     1       5.953  -0.080   1.398  1.00  0.00     0.058 C 
ENDROOT
BRANCH   1  16
ATOM     16  O   UNL     1       8.746   1.489   4.958  1.00  0.00    -0.493 OA
ATOM     17  C   UNL     1       9.255   0.171   5.155  1.00  0.00     0.278 C 
ENDBRANCH   1  16
BRANCH   6  18
ATOM     18  O   UNL     1       8.633   4.057   4.112  1.00  0.00    -0.493 OA
ATOM     19  C   UNL     1       9.217   5.185   3.496  1.00  0.00     0.278 C 
ENDBRANCH   6  18
BRANCH   8  20
ATOM     20  O   UNL     1       6.241   5.023   0.391  1.00  0.00    -0.491 OA
ATOM     21  C   UNL     1       7.184   5.677  -0.496  1.00  0.00     0.278 C 
ENDBRANCH   8  20
BRANCH   9  22
ATOM     22  O   UNL     1       4.606   5.413  -1.699  1.00  0.00    -0.493 OA
ATOM     23  C   UNL     1       3.384   5.844  -2.206  1.00  0.00     0.278 C 
ENDBRANCH   9  22
TORSDOF 4
ENDMDL
MODEL 2
REMARK VINA RESULT:      -2.2      1.432      3.849
REMARK SMILES COc1cc2c(cc1OC)-c1c(OC)c(OC)cc(=O)n1CC2
REMARK SMILES IDX 3 1 4 2 5 3 6 4 7 5 8 6 11 7 12 8 15 9 18 10 19 11 20 12
REMARK SMILES IDX 21 13 22 14 23 15 2 16 1 17 9 18 10 19 13 20 14 21 16 22
REMARK SMILES IDX 17 23
REMARK H PARENT
ROOT
ATOM      1  C   UNL     1       8.738   3.841   3.502  1.00  0.00     0.161 A 
ATOM      2  C   UNL     1       8.154   4.864   2.808  1.00  0.00     0.055 A 
ATOM      3  C   UNL     1       7.197   4.498   1.850  1.00  0.00    -0.033 A 
ATOM      4  C   UNL     1       6.859   3.188   1.616  1.00  0.00     0.009 A 
ATOM      5  C   UNL     1       7.489   2.219   2.351  1.00  0.00     0.061 A 
ATOM      6  C   UNL     1       8.454   2.515   3.324  1.00  0.00     0.161 A 
ATOM      7  C   UNL     1       5.917   2.898   0.556  1.00  0.00     0.098 A 
ATOM      8  C   UNL     1       5.544   1.614   0.297  1.00  0.00     0.185 A 
ATOM      9  C   UNL     1       4.637   1.344  -0.740  1.00  0.00     0.168 A 
ATOM     10  C   UNL     1       4.119   2.361  -1.494  1.00  0.00     0.122 A 
ATOM     11  C   UNL     1       4.516   3.641  -1.200  1.00  0.00     0.254 A 
ATOM     12  O   UNL     1       4.036   4.568  -1.893  1.00  0.00    -0.269 OA
ATOM     13  N   UNL     1       5.407   3.889  -0.181  1.00  0.00    -0.304 N 
ATOM     14  C   UNL     1       5.723   5.295  -0.016  1.00  0.00     0.131 C 
ATOM     15  C   UNL     1       6.578   5.648   1.128  1.00  0.00     0.058 C 
ENDROOT
BRANCH   1  16
ATOM     16  O   UNL     1       9.688   4.167   4.457  1.00  0.00    -0.493 OA
ATOM     17  C   UNL     1       9.554   5.369   5.213  1.00  0.00     0.278 C 
ENDBRANCH   1  16
BRANCH   6  18
ATOM     18  O   UNL     1       9.089   1.557   4.065  1.00  0.00    -0.493 OA
ATOM     19  C   UNL     1       8.460   0.371   4.500  1.00  0.00     0.278 C 
ENDBRANCH   6  18
BRANCH   8  20
ATOM     20  O   UNL     1       5.957   0.477   0.979  1.00  0.00    -0.491 OA
ATOM     21  C   UNL     1       5.247   0.090   2.183  1.00  0.00     0.278 C 
ENDBRANCH   8  20
BRANCH   9  22
ATOM     22  O   UNL     1       4.239   0.042  -1.033  1.00  0.00    -0.493 OA
ATOM     23  C   UNL     1       3.714  -0.781  -0.041  1.00  0.00     0.278 C 
ENDBRANCH   9  22
TORSDOF 4
ENDMDL
MODEL 3
REMARK VINA RESULT:      -2.0      2.046      3.265
REMARK SMILES COc1cc2c(cc1OC)-c1c(OC)c(OC)cc(=O)n1CC2
REMARK SMILES IDX 3 1 4 2 5 3 6 4 7 5 8 6 11 7 12 8 15 9 18 10 19 11 20 12
REMARK SMILES IDX 21 13 22 14 23 15 2 16 1 17 9 18 10 19 13 20 14 21 16 22
REMARK SMILES IDX 17 23
REMARK H PARENT
ROOT
ATOM      1  C   UNL     1       6.848   0.012   2.829  1.00  0.00     0.161 A 
ATOM      2  C   UNL     1       5.658   0.327   2.235  1.00  0.00     0.055 A 
ATOM      3  C   UNL     1       5.685   1.380   1.309  1.00  0.00    -0.033 A 
ATOM      4  C   UNL     1       6.839   2.062   1.010  1.00  0.00     0.009 A 
ATOM      5  C   UNL     1       7.992   1.689   1.647  1.00  0.00     0.061 A 
ATOM      6  C   UNL     1       8.036   0.646   2.583  1.00  0.00     0.161 A 
ATOM      7  C   UNL     1       6.760   3.185   0.099  1.00  0.00     0.098 A 
ATOM      8  C   UNL     1       7.881   3.882  -0.236  1.00  0.00     0.185 A 
ATOM      9  C   UNL     1       7.790   4.975  -1.112  1.00  0.00     0.168 A 
ATOM     10  C   UNL     1       6.583   5.346  -1.639  1.00  0.00     0.122 A 
ATOM     11  C   UNL     1       5.478   4.616  -1.281  1.00  0.00     0.254 A 
ATOM     12  O   UNL     1       4.376   4.961  -1.769  1.00  0.00    -0.269 OA
ATOM     13  N   UNL     1       5.583   3.549  -0.419  1.00  0.00    -0.304 N 
ATOM     14  C   UNL     1       4.316   2.900  -0.143  1.00  0.00     0.131 C 
ATOM     15  C   UNL     1       4.367   1.680   0.678  1.00  0.00     0.058 C 
ENDROOT
BRANCH   1  16
ATOM     16  O   UNL     1       6.857  -1.024   3.749  1.00  0.00    -0.493 OA
ATOM     17  C   UNL     1       6.443  -0.787   5.093  1.00  0.00     0.278 C 
ENDBRANCH   1  16
BRANCH   6  18
ATOM     18  O   UNL     1       9.180   0.263   3.225  1.00  0.00    -0.493 OA
ATOM     19  C   UNL     1       9.736  -1.029   3.113  1.00  0.00     0.278 C 
ENDBRANCH   6  18
BRANCH   8  20
ATOM     20  O   UNL     1       9.176   3.623   0.191  1.00  0.00    -0.491 OA
ATOM     21  C   UNL     1       9.740   4.443   1.245  1.00  0.00     0.278 C 
ENDBRANCH   8  20
BRANCH   9  22
ATOM     22  O   UNL     1       8.917   5.711  -1.471  1.00  0.00    -0.493 OA
ATOM     23  C   UNL     1       9.309   5.806  -2.804  1.00  0.00     0.278 C 
ENDBRANCH   9  22
TORSDOF 4
ENDMDL
MODEL 4
REMARK VINA RESULT:      -2.0      1.621      5.798
REMARK SMILES COc1cc2c(cc1OC)-c1c(OC)c(OC)cc(=O)n1CC2
REMARK SMILES IDX 3 1 4 2 5 3 6 4 7 5 8 6 11 7 12 8 15 9 18 10 19 11 20 12
REMARK SMILES IDX 21 13 22 14 23 15 2 16 1 17 9 18 10 19 13 20 14 21 16 22
REMARK SMILES IDX 17 23
REMARK H PARENT
ROOT
ATOM      1  C   UNL     1       4.734   1.961  -0.605  1.00  0.00     0.161 A 
ATOM      2  C   UNL     1       4.847   0.803   0.113  1.00  0.00     0.055 A 
ATOM      3  C   UNL     1       5.636   0.864   1.271  1.00  0.00    -0.033 A 
ATOM      4  C   UNL     1       6.262   2.019   1.670  1.00  0.00     0.009 A 
ATOM      5  C   UNL     1       6.102   3.139   0.898  1.00  0.00     0.061 A 
ATOM      6  C   UNL     1       5.328   3.148  -0.271  1.00  0.00     0.161 A 
ATOM      7  C   UNL     1       7.118   1.972   2.837  1.00  0.00     0.098 A 
ATOM      8  C   UNL     1       7.748   3.097   3.275  1.00  0.00     0.185 A 
ATOM      9  C   UNL     1       8.584   3.036   4.402  1.00  0.00     0.168 A 
ATOM     10  C   UNL     1       8.768   1.856   5.070  1.00  0.00     0.122 A 
ATOM     11  C   UNL     1       8.112   0.747   4.600  1.00  0.00     0.254 A 
ATOM     12  O   UNL     1       8.284  -0.330   5.218  1.00  0.00    -0.269 OA
ATOM     13  N   UNL     1       7.299   0.822   3.493  1.00  0.00    -0.304 N 
ATOM     14  C   UNL     1       6.694  -0.445   3.130  1.00  0.00     0.131 C 
ATOM     15  C   UNL     1       5.720  -0.419   2.028  1.00  0.00     0.058 C 
ENDROOT
BRANCH   1  16
ATOM     16  O   UNL     1       3.961   1.936  -1.754  1.00  0.00    -0.493 OA
ATOM     17  C   UNL     1       2.832   1.069  -1.835  1.00  0.00     0.278 C 
ENDBRANCH   1  16
BRANCH   6  18
ATOM     18  O   UNL     1       5.159   4.259  -1.049  1.00  0.00    -0.493 OA
ATOM     19  C   UNL     1       4.152   5.221  -0.819  1.00  0.00     0.278 C 
ENDBRANCH   6  18
BRANCH   8  20
ATOM     20  O   UNL     1       7.651   4.369   2.729  1.00  0.00    -0.491 OA
ATOM     21  C   UNL     1       8.596   4.760   1.701  1.00  0.00     0.278 C 
ENDBRANCH   8  20
BRANCH   9  22
ATOM     22  O   UNL     1       9.247   4.167   4.874  1.00  0.00    -0.493 OA
ATOM     23  C   UNL     1       8.540   5.320   5.202  1.00  0.00     0.278 C 
ENDBRANCH   9  22
TORSDOF 4
ENDMDL
MODEL 5
REMARK VINA RESULT:      -1.6      2.521      4.825
REMARK SMILES COc1cc2c(cc1OC)-c1c(OC)c(OC)cc(=O)n1CC2
REMARK SMILES IDX 3 1 4 2 5 3 6 4 7 5 8 6 11 7 12 8 15 9 18 10 19 11 20 12
REMARK SMILES IDX 21 13 22 14 23 15 2 16 1 17 9 18 10 19 13 20 14 21 16 22
REMARK SMILES IDX 17 23
REMARK H PARENT
ROOT
ATOM      1  C   UNL     1       8.243  -1.249   2.821  1.00  0.00     0.161 A 
ATOM      2  C   UNL     1       9.062  -0.374   3.479  1.00  0.00     0.055 A 
ATOM      3  C   UNL     1       8.638   0.962   3.519  1.00  0.00    -0.033 A 
ATOM      4  C   UNL     1       7.467   1.377   2.934  1.00  0.00     0.009 A 
ATOM      5  C   UNL     1       6.701   0.441   2.292  1.00  0.00     0.061 A 
ATOM      6  C   UNL     1       7.064  -0.911   2.214  1.00  0.00     0.161 A 
ATOM      7  C   UNL     1       7.146   2.789   2.958  1.00  0.00     0.098 A 
ATOM      8  C   UNL     1       5.989   3.242   2.401  1.00  0.00     0.185 A 
ATOM      9  C   UNL     1       5.693   4.614   2.422  1.00  0.00     0.168 A 
ATOM     10  C   UNL     1       6.556   5.504   3.003  1.00  0.00     0.122 A 
ATOM     11  C   UNL     1       7.708   5.007   3.558  1.00  0.00     0.254 A 
ATOM     12  O   UNL     1       8.492   5.827   4.089  1.00  0.00    -0.269 OA
ATOM     13  N   UNL     1       7.985   3.660   3.526  1.00  0.00    -0.304 N 
ATOM     14  C   UNL     1       9.248   3.312   4.149  1.00  0.00     0.131 C 
ATOM     15  C   UNL     1       9.556   1.878   4.257  1.00  0.00     0.058 C 
ENDROOT
BRANCH   1  16
ATOM     16  O   UNL     1       8.632  -2.578   2.763  1.00  0.00    -0.493 OA
ATOM     17  C   UNL     1       9.740  -3.030   3.537  1.00  0.00     0.278 C 
ENDBRANCH   1  16
BRANCH   6  18
ATOM     18  O   UNL     1       6.308  -1.855   1.578  1.00  0.00    -0.493 OA
ATOM     19  C   UNL     1       5.629  -1.615   0.364  1.00  0.00     0.278 C 
ENDBRANCH   6  18
BRANCH   8  20
ATOM     20  O   UNL     1       5.004   2.475   1.796  1.00  0.00    -0.491 OA
ATOM     21  C   UNL     1       5.136   2.154   0.388  1.00  0.00     0.278 C 
ENDBRANCH   8  20
BRANCH   9  22
ATOM     22  O   UNL     1       4.521   5.112   1.857  1.00  0.00    -0.493 OA
ATOM     23  C   UNL     1       4.538   5.715   0.602  1.00  0.00     0.278 C 
ENDBRANCH   9  22
TORSDOF 4
ENDMDL
MODEL 6
REMARK VINA RESULT:      -0.6      2.399      5.799
REMARK SMILES COc1cc2c(cc1OC)-c1c(OC)c(OC)cc(=O)n1CC2
REMARK SMILES IDX 3 1 4 2 5 3 6 4 7 5 8 6 11 7 12 8 15 9 18 10 19 11 20 12
REMARK SMILES IDX 21 13 22 14 23 15 2 16 1 17 9 18 10 19 13 20 14 21 16 22
REMARK SMILES IDX 17 23
REMARK H PARENT
ROOT
ATOM      1  C   UNL     1       5.173   4.242   1.641  1.00  0.00     0.161 A 
ATOM      2  C   UNL     1       4.733   3.150   0.947  1.00  0.00     0.055 A 
ATOM      3  C   UNL     1       5.355   1.929   1.248  1.00  0.00    -0.033 A 
ATOM      4  C   UNL     1       6.351   1.828   2.188  1.00  0.00     0.009 A 
ATOM      5  C   UNL     1       6.740   2.967   2.841  1.00  0.00     0.061 A 
ATOM      6  C   UNL     1       6.160   4.219   2.589  1.00  0.00     0.161 A 
ATOM      7  C   UNL     1       6.990   0.543   2.380  1.00  0.00     0.098 A 
ATOM      8  C   UNL     1       7.974   0.394   3.309  1.00  0.00     0.185 A 
ATOM      9  C   UNL     1       8.592  -0.855   3.480  1.00  0.00     0.168 A 
ATOM     10  C   UNL     1       8.212  -1.929   2.722  1.00  0.00     0.122 A 
ATOM     11  C   UNL     1       7.214  -1.740   1.800  1.00  0.00     0.254 A 
ATOM     12  O   UNL     1       6.870  -2.729   1.111  1.00  0.00    -0.269 OA
ATOM     13  N   UNL     1       6.620  -0.509   1.644  1.00  0.00    -0.304 N 
ATOM     14  C   UNL     1       5.593  -0.487   0.619  1.00  0.00     0.131 C 
ATOM     15  C   UNL     1       4.833   0.765   0.476  1.00  0.00     0.058 C 
ENDROOT
BRANCH   1  16
ATOM     16  O   UNL     1       4.580   5.463   1.369  1.00  0.00    -0.493 OA
ATOM     17  C   UNL     1       3.202   5.669   1.673  1.00  0.00     0.278 C 
ENDBRANCH   1  16
BRANCH   6  18
ATOM     18  O   UNL     1       6.538   5.363   3.235  1.00  0.00    -0.493 OA
ATOM     19  C   UNL     1       6.064   5.722   4.515  1.00  0.00     0.278 C 
ENDBRANCH   6  18
BRANCH   8  20
ATOM     20  O   UNL     1       8.458   1.371   4.168  1.00  0.00    -0.491 OA
ATOM     21  C   UNL     1       7.589   1.868   5.218  1.00  0.00     0.278 C 
ENDBRANCH   8  20
BRANCH   9  22
ATOM     22  O   UNL     1       9.605  -1.040   4.418  1.00  0.00    -0.493 OA
ATOM     23  C   UNL     1       9.718  -2.240   5.115  1.00  0.00     0.278 C 
ENDBRANCH   9  22
TORSDOF 4
ENDMDL
