MODEL 1
REMARK VINA RESULT:      -5.0      0.000      0.000
REMARK SMILES O=C(c1ccccc1)c1cccc(C(=O)N2CCSCC2)c1
REMARK SMILES IDX 9 1 10 2 11 3 12 4 13 5 22 6 2 7 1 8 3 9 4 10 8 11 5 12 7 13
REMARK SMILES IDX 6 14 14 15 16 16 17 17 21 18 18 19 20 20 19 21 15 22
REMARK H PARENT
ROOT
ATOM      1  C   UNL     1       5.280   0.659   0.672  1.00  0.00     0.023 A 
ATOM      2  C   UNL     1       5.563  -0.658   0.370  1.00  0.00     0.012 A 
ATOM      3  C   UNL     1       6.363  -1.449   1.191  1.00  0.00     0.002 A 
ATOM      4  C   UNL     1       6.911  -0.944   2.357  1.00  0.00     0.014 A 
ATOM      5  C   UNL     1       6.632   0.373   2.670  1.00  0.00     0.040 A 
ATOM      6  C   UNL     1       5.845   1.149   1.856  1.00  0.00     0.026 A 
ENDROOT
BRANCH   1   7
ATOM      7  C   UNL     1       4.475   1.534  -0.157  1.00  0.00     0.193 C 
ATOM      8  O   UNL     1       3.689   0.953  -0.986  1.00  0.00    -0.289 OA
BRANCH   7   9
ATOM      9  C   UNL     1       4.463   2.962  -0.147  1.00  0.00     0.022 A 
ATOM     10  C   UNL     1       4.371   3.728   1.001  1.00  0.00     0.012 A 
ATOM     11  C   UNL     1       4.563   3.661  -1.335  1.00  0.00     0.012 A 
ATOM     12  C   UNL     1       4.381   5.105   0.927  1.00  0.00     0.001 A 
ATOM     13  C   UNL     1       4.573   5.036  -1.414  1.00  0.00     0.001 A 
ATOM     14  C   UNL     1       4.482   5.797  -0.259  1.00  0.00     0.000 A 
ENDBRANCH   7   9
ENDBRANCH   1   7
BRANCH   5  15
ATOM     15  C   UNL     1       7.174   0.967   3.863  1.00  0.00     0.253 C 
ATOM     16  N   UNL     1       8.048   2.090   3.893  1.00  0.00    -0.337 N 
ATOM     17  C   UNL     1       8.492   2.769   2.672  1.00  0.00     0.130 C 
ATOM     18  C   UNL     1       8.539   2.606   5.147  1.00  0.00     0.130 C 
ATOM     19  C   UNL     1       8.091   4.240   2.696  1.00  0.00     0.091 C 
ATOM     20  C   UNL     1       9.738   3.514   4.967  1.00  0.00     0.091 C 
ATOM     21  S   UNL     1       9.134   4.960   4.016  1.00  0.00    -0.158 SA
ATOM     22  O   UNL     1       6.830   0.428   4.973  1.00  0.00    -0.269 OA
ENDBRANCH   5  15
TORSDOF 3
ENDMDL
MODEL 2
REMARK VINA RESULT:      -5.0      0.165      1.013
REMARK SMILES O=C(c1ccccc1)c1cccc(C(=O)N2CCSCC2)c1
REMARK SMILES IDX 9 1 10 2 11 3 12 4 13 5 22 6 2 7 1 8 3 9 4 10 8 11 5 12 7 13
REMARK SMILES IDX 6 14 14 15 16 16 17 17 21 18 18 19 20 20 19 21 15 22
REMARK H PARENT
ROOT
ATOM      1  C   UNL     1       5.202   0.596   0.554  1.00  0.00     0.023 A 
ATOM      2  C   UNL     1       5.467  -0.726   0.256  1.00  0.00     0.012 A 
ATOM      3  C   UNL     1       6.256  -1.525   1.080  1.00  0.00     0.002 A 
ATOM      4  C   UNL     1       6.811  -1.024   2.244  1.00  0.00     0.014 A 
ATOM      5  C   UNL     1       6.551   0.298   2.552  1.00  0.00     0.040 A 
ATOM      6  C   UNL     1       5.775   1.082   1.735  1.00  0.00     0.026 A 
ENDROOT
BRANCH   1   7
ATOM      7  C   UNL     1       4.410   1.479  -0.278  1.00  0.00     0.193 C 
ATOM      8  O   UNL     1       3.569   0.908  -1.060  1.00  0.00    -0.289 OA
BRANCH   7   9
ATOM      9  C   UNL     1       4.464   2.906  -0.319  1.00  0.00     0.022 A 
ATOM     10  C   UNL     1       4.632   3.641  -1.479  1.00  0.00     0.012 A 
ATOM     11  C   UNL     1       4.331   3.636   0.846  1.00  0.00     0.012 A 
ATOM     12  C   UNL     1       4.660   5.019  -1.436  1.00  0.00     0.001 A 
ATOM     13  C   UNL     1       4.358   5.012   0.894  1.00  0.00     0.001 A 
ATOM     14  C   UNL     1       4.525   5.742  -0.273  1.00  0.00     0.000 A 
ENDBRANCH   7   9
ENDBRANCH   1   7
BRANCH   5  15
ATOM     15  C   UNL     1       7.101   0.888   3.743  1.00  0.00     0.253 C 
ATOM     16  N   UNL     1       8.012   1.981   3.768  1.00  0.00    -0.337 N 
ATOM     17  C   UNL     1       8.492   2.628   2.543  1.00  0.00     0.130 C 
ATOM     18  C   UNL     1       8.508   2.496   5.021  1.00  0.00     0.130 C 
ATOM     19  C   UNL     1       8.140   4.112   2.544  1.00  0.00     0.091 C 
ATOM     20  C   UNL     1       9.740   3.360   4.841  1.00  0.00     0.091 C 
ATOM     21  S   UNL     1       9.195   4.814   3.866  1.00  0.00    -0.158 SA
ATOM     22  O   UNL     1       6.728   0.376   4.856  1.00  0.00    -0.269 OA
ENDBRANCH   5  15
TORSDOF 3
ENDMDL
MODEL 3
REMARK VINA RESULT:      -4.8      2.237      2.874
REMARK SMILES O=C(c1ccccc1)c1cccc(C(=O)N2CCSCC2)c1
REMARK SMILES IDX 9 1 10 2 11 3 12 4 13 5 22 6 2 7 1 8 3 9 4 10 8 11 5 12 7 13
REMARK SMILES IDX 6 14 14 15 16 16 17 17 21 18 18 19 20 20 19 21 15 22
REMARK H PARENT
ROOT
ATOM      1  C   UNL     1       5.109   2.019  -0.590  1.00  0.00     0.023 A 
ATOM      2  C   UNL     1       4.047   1.252  -1.023  1.00  0.00     0.012 A 
ATOM      3  C   UNL     1       3.823  -0.037  -0.545  1.00  0.00     0.002 A 
ATOM      4  C   UNL     1       4.663  -0.608   0.394  1.00  0.00     0.014 A 
ATOM      5  C   UNL     1       5.730   0.152   0.834  1.00  0.00     0.040 A 
ATOM      6  C   UNL     1       5.948   1.421   0.359  1.00  0.00     0.026 A 
ENDROOT
BRANCH   1   7
ATOM      7  C   UNL     1       5.404   3.355  -1.070  1.00  0.00     0.193 C 
ATOM      8  O   UNL     1       4.583   3.835  -1.928  1.00  0.00    -0.289 OA
BRANCH   7   9
ATOM      9  C   UNL     1       6.502   4.186  -0.691  1.00  0.00     0.022 A 
ATOM     10  C   UNL     1       6.510   4.993   0.432  1.00  0.00     0.012 A 
ATOM     11  C   UNL     1       7.652   4.203  -1.456  1.00  0.00     0.012 A 
ATOM     12  C   UNL     1       7.617   5.756   0.738  1.00  0.00     0.001 A 
ATOM     13  C   UNL     1       8.760   4.964  -1.156  1.00  0.00     0.001 A 
ATOM     14  C   UNL     1       8.760   5.769  -0.028  1.00  0.00     0.000 A 
ENDBRANCH   7   9
ENDBRANCH   1   7
BRANCH   5  15
ATOM     15  C   UNL     1       6.649  -0.380   1.805  1.00  0.00     0.253 C 
ATOM     16  N   UNL     1       7.623   0.380   2.512  1.00  0.00    -0.337 N 
ATOM     17  C   UNL     1       7.785   1.824   2.312  1.00  0.00     0.130 C 
ATOM     18  C   UNL     1       8.502  -0.254   3.463  1.00  0.00     0.130 C 
ATOM     19  C   UNL     1       7.582   2.577   3.622  1.00  0.00     0.091 C 
ATOM     20  C   UNL     1       9.701   0.608   3.803  1.00  0.00     0.091 C 
ATOM     21  S   UNL     1       9.030   2.097   4.635  1.00  0.00    -0.158 SA
ATOM     22  O   UNL     1       6.569  -1.637   2.035  1.00  0.00    -0.269 OA
ENDBRANCH   5  15
TORSDOF 3
ENDMDL
MODEL 4
REMARK VINA RESULT:      -4.8      2.271      2.880
REMARK SMILES O=C(c1ccccc1)c1cccc(C(=O)N2CCSCC2)c1
REMARK SMILES IDX 9 1 10 2 11 3 12 4 13 5 22 6 2 7 1 8 3 9 4 10 8 11 5 12 7 13
REMARK SMILES IDX 6 14 14 15 16 16 17 17 21 18 18 19 20 20 19 21 15 22
REMARK H PARENT
ROOT
ATOM      1  C   UNL     1       5.136   2.196  -0.427  1.00  0.00     0.023 A 
ATOM      2  C   UNL     1       4.105   1.346  -0.773  1.00  0.00     0.012 A 
ATOM      3  C   UNL     1       3.813   0.201  -0.036  1.00  0.00     0.002 A 
ATOM      4  C   UNL     1       4.549  -0.135   1.087  1.00  0.00     0.014 A 
ATOM      5  C   UNL     1       5.583   0.711   1.442  1.00  0.00     0.040 A 
ATOM      6  C   UNL     1       5.869   1.837   0.711  1.00  0.00     0.026 A 
ENDROOT
BRANCH   1   7
ATOM      7  C   UNL     1       5.500   3.386  -1.171  1.00  0.00     0.193 C 
ATOM      8  O   UNL     1       4.534   4.007  -1.741  1.00  0.00    -0.289 OA
BRANCH   7   9
ATOM      9  C   UNL     1       6.808   3.936  -1.333  1.00  0.00     0.022 A 
ATOM     10  C   UNL     1       7.870   3.253  -1.895  1.00  0.00     0.012 A 
ATOM     11  C   UNL     1       7.066   5.232  -0.930  1.00  0.00     0.012 A 
ATOM     12  C   UNL     1       9.101   3.861  -2.030  1.00  0.00     0.001 A 
ATOM     13  C   UNL     1       8.293   5.844  -1.062  1.00  0.00     0.001 A 
ATOM     14  C   UNL     1       9.353   5.153  -1.628  1.00  0.00     0.000 A 
ENDBRANCH   7   9
ENDBRANCH   1   7
BRANCH   5  15
ATOM     15  C   UNL     1       6.395   0.421   2.593  1.00  0.00     0.253 C 
ATOM     16  N   UNL     1       7.436   1.255   3.091  1.00  0.00    -0.337 N 
ATOM     17  C   UNL     1       7.788   2.529   2.457  1.00  0.00     0.130 C 
ATOM     18  C   UNL     1       8.196   0.867   4.253  1.00  0.00     0.130 C 
ATOM     19  C   UNL     1       7.643   3.682   3.444  1.00  0.00     0.091 C 
ATOM     20  C   UNL     1       9.485   1.653   4.387  1.00  0.00     0.091 C 
ATOM     21  S   UNL     1       8.985   3.396   4.656  1.00  0.00    -0.158 SA
ATOM     22  O   UNL     1       6.147  -0.677   3.203  1.00  0.00    -0.269 OA
ENDBRANCH   5  15
TORSDOF 3
ENDMDL
MODEL 5
REMARK VINA RESULT:      -4.4      2.565      5.318
REMARK SMILES O=C(c1ccccc1)c1cccc(C(=O)N2CCSCC2)c1
REMARK SMILES IDX 9 1 10 2 11 3 12 4 13 5 22 6 2 7 1 8 3 9 4 10 8 11 5 12 7 13
REMARK SMILES IDX 6 14 14 15 16 16 17 17 21 18 18 19 20 20 19 21 15 22
REMARK H PARENT
ROOT
ATOM      1  C   UNL     1       5.562   0.059   0.684  1.00  0.00     0.023 A 
ATOM      2  C   UNL     1       4.381  -0.459   0.194  1.00  0.00     0.012 A 
ATOM      3  C   UNL     1       3.563   0.258  -0.675  1.00  0.00     0.002 A 
ATOM      4  C   UNL     1       3.905   1.533  -1.091  1.00  0.00     0.014 A 
ATOM      5  C   UNL     1       5.087   2.061  -0.607  1.00  0.00     0.040 A 
ATOM      6  C   UNL     1       5.889   1.351   0.251  1.00  0.00     0.026 A 
ENDROOT
BRANCH   1   7
ATOM      7  C   UNL     1       6.439  -0.633   1.608  1.00  0.00     0.193 C 
ATOM      8  O   UNL     1       6.351  -1.911   1.613  1.00  0.00    -0.289 OA
BRANCH   7   9
ATOM      9  C   UNL     1       7.382  -0.046   2.506  1.00  0.00     0.022 A 
ATOM     10  C   UNL     1       8.664  -0.525   2.703  1.00  0.00     0.012 A 
ATOM     11  C   UNL     1       7.039   1.078   3.231  1.00  0.00     0.012 A 
ATOM     12  C   UNL     1       9.522   0.107   3.579  1.00  0.00     0.001 A 
ATOM     13  C   UNL     1       7.891   1.714   4.107  1.00  0.00     0.001 A 
ATOM     14  C   UNL     1       9.175   1.228   4.298  1.00  0.00     0.000 A 
ENDBRANCH   7   9
ENDBRANCH   1   7
BRANCH   5  15
ATOM     15  C   UNL     1       5.503   3.384  -0.991  1.00  0.00     0.253 C 
ATOM     16  N   UNL     1       6.783   3.947  -0.729  1.00  0.00    -0.337 N 
ATOM     17  C   UNL     1       7.833   3.208  -0.021  1.00  0.00     0.130 C 
ATOM     18  C   UNL     1       7.098   5.289  -1.154  1.00  0.00     0.130 C 
ATOM     19  C   UNL     1       9.082   3.081  -0.887  1.00  0.00     0.091 C 
ATOM     20  C   UNL     1       8.321   5.844  -0.452  1.00  0.00     0.091 C 
ATOM     21  S   UNL     1       9.725   4.792  -0.986  1.00  0.00    -0.158 SA
ATOM     22  O   UNL     1       4.639   4.093  -1.615  1.00  0.00    -0.269 OA
ENDBRANCH   5  15
TORSDOF 3
ENDMDL
MODEL 6
REMARK VINA RESULT:      -4.0      2.692      4.141
REMARK SMILES O=C(c1ccccc1)c1cccc(C(=O)N2CCSCC2)c1
REMARK SMILES IDX 9 1 10 2 11 3 12 4 13 5 22 6 2 7 1 8 3 9 4 10 8 11 5 12 7 13
REMARK SMILES IDX 6 14 14 15 16 16 17 17 21 18 18 19 20 20 19 21 15 22
REMARK H PARENT
ROOT
ATOM      1  C   UNL     1       6.643   3.225  -0.812  1.00  0.00     0.023 A 
ATOM      2  C   UNL     1       7.477   3.787  -1.757  1.00  0.00     0.012 A 
ATOM      3  C   UNL     1       8.790   4.146  -1.464  1.00  0.00     0.002 A 
ATOM      4  C   UNL     1       9.320   3.951  -0.201  1.00  0.00     0.014 A 
ATOM      5  C   UNL     1       8.493   3.388   0.753  1.00  0.00     0.040 A 
ATOM      6  C   UNL     1       7.199   3.038   0.460  1.00  0.00     0.026 A 
ENDROOT
BRANCH   1   7
ATOM      7  C   UNL     1       5.262   2.855  -1.055  1.00  0.00     0.193 C 
ATOM      8  O   UNL     1       4.635   3.565  -1.918  1.00  0.00    -0.289 OA
BRANCH   7   9
ATOM      9  C   UNL     1       4.533   1.792  -0.440  1.00  0.00     0.022 A 
ATOM     10  C   UNL     1       3.755   1.941   0.693  1.00  0.00     0.012 A 
ATOM     11  C   UNL     1       4.568   0.524  -0.988  1.00  0.00     0.012 A 
ATOM     12  C   UNL     1       3.068   0.866   1.218  1.00  0.00     0.001 A 
ATOM     13  C   UNL     1       3.885  -0.553  -0.468  1.00  0.00     0.001 A 
ATOM     14  C   UNL     1       3.105  -0.395   0.667  1.00  0.00     0.000 A 
ENDBRANCH   7   9
ENDBRANCH   1   7
BRANCH   5  15
ATOM     15  C   UNL     1       8.974   3.163   2.090  1.00  0.00     0.253 C 
ATOM     16  N   UNL     1       8.950   1.912   2.768  1.00  0.00    -0.337 N 
ATOM     17  C   UNL     1       8.416   0.696   2.147  1.00  0.00     0.130 C 
ATOM     18  C   UNL     1       9.455   1.795   4.114  1.00  0.00     0.130 C 
ATOM     19  C   UNL     1       9.480  -0.395   2.092  1.00  0.00     0.091 C 
ATOM     20  C   UNL     1       8.988   0.525   4.796  1.00  0.00     0.091 C 
ATOM     21  S   UNL     1       9.729  -0.857   3.846  1.00  0.00    -0.158 SA
ATOM     22  O   UNL     1       9.458   4.180   2.699  1.00  0.00    -0.269 OA
ENDBRANCH   5  15
TORSDOF 3
ENDMDL
MODEL 7
REMARK VINA RESULT:      -4.0      2.327      4.361
REMARK SMILES O=C(c1ccccc1)c1cccc(C(=O)N2CCSCC2)c1
REMARK SMILES IDX 9 1 10 2 11 3 12 4 13 5 22 6 2 7 1 8 3 9 4 10 8 11 5 12 7 13
REMARK SMILES IDX 6 14 14 15 16 16 17 17 21 18 18 19 20 20 19 21 15 22
REMARK H PARENT
ROOT
ATOM      1  C   UNL     1       5.580   3.517  -0.249  1.00  0.00     0.023 A 
ATOM      2  C   UNL     1       4.671   3.428  -1.283  1.00  0.00     0.012 A 
ATOM      3  C   UNL     1       4.084   2.219  -1.649  1.00  0.00     0.002 A 
ATOM      4  C   UNL     1       4.390   1.045  -0.983  1.00  0.00     0.014 A 
ATOM      5  C   UNL     1       5.298   1.124   0.055  1.00  0.00     0.040 A 
ATOM      6  C   UNL     1       5.876   2.317   0.410  1.00  0.00     0.026 A 
ENDROOT
BRANCH   1   7
ATOM      7  C   UNL     1       6.239   4.742   0.158  1.00  0.00     0.193 C 
ATOM      8  O   UNL     1       6.226   5.697  -0.697  1.00  0.00    -0.289 OA
BRANCH   7   9
ATOM      9  C   UNL     1       6.895   4.998   1.401  1.00  0.00     0.022 A 
ATOM     10  C   UNL     1       8.240   4.774   1.627  1.00  0.00     0.012 A 
ATOM     11  C   UNL     1       6.180   5.515   2.465  1.00  0.00     0.012 A 
ATOM     12  C   UNL     1       8.802   5.061   2.853  1.00  0.00     0.001 A 
ATOM     13  C   UNL     1       6.736   5.803   3.692  1.00  0.00     0.001 A 
ATOM     14  C   UNL     1       8.087   5.577   3.909  1.00  0.00     0.000 A 
ENDBRANCH   7   9
ENDBRANCH   1   7
BRANCH   5  15
ATOM     15  C   UNL     1       5.669  -0.058   0.788  1.00  0.00     0.253 C 
ATOM     16  N   UNL     1       6.891  -0.231   1.497  1.00  0.00    -0.337 N 
ATOM     17  C   UNL     1       7.919   0.813   1.550  1.00  0.00     0.130 C 
ATOM     18  C   UNL     1       7.167  -1.461   2.197  1.00  0.00     0.130 C 
ATOM     19  C   UNL     1       8.204   1.218   2.992  1.00  0.00     0.091 C 
ATOM     20  C   UNL     1       8.636  -1.612   2.539  1.00  0.00     0.091 C 
ATOM     21  S   UNL     1       9.021  -0.255   3.710  1.00  0.00    -0.158 SA
ATOM     22  O   UNL     1       4.820  -1.016   0.789  1.00  0.00    -0.269 OA
ENDBRANCH   5  15
TORSDOF 3
ENDMDL
MODEL 8
REMARK VINA RESULT:      -4.0      3.160      5.718
REMARK SMILES O=C(c1ccccc1)c1cccc(C(=O)N2CCSCC2)c1
REMARK SMILES IDX 9 1 10 2 11 3 12 4 13 5 22 6 2 7 1 8 3 9 4 10 8 11 5 12 7 13
REMARK SMILES IDX 6 14 14 15 16 16 17 17 21 18 18 19 20 20 19 21 15 22
REMARK H PARENT
ROOT
ATOM      1  C   UNL     1       5.479   0.279   0.195  1.00  0.00     0.023 A 
ATOM      2  C   UNL     1       4.380  -0.071  -0.563  1.00  0.00     0.012 A 
ATOM      3  C   UNL     1       3.802   0.808  -1.477  1.00  0.00     0.002 A 
ATOM      4  C   UNL     1       4.312   2.080  -1.666  1.00  0.00     0.014 A 
ATOM      5  C   UNL     1       5.413   2.440  -0.913  1.00  0.00     0.040 A 
ATOM      6  C   UNL     1       5.977   1.571  -0.012  1.00  0.00     0.026 A 
ENDROOT
BRANCH   1   7
ATOM      7  C   UNL     1       6.105  -0.585   1.176  1.00  0.00     0.193 C 
ATOM      8  O   UNL     1       5.690  -1.798   1.200  1.00  0.00    -0.289 OA
BRANCH   7   9
ATOM      9  C   UNL     1       7.127  -0.233   2.109  1.00  0.00     0.022 A 
ATOM     10  C   UNL     1       8.225   0.547   1.797  1.00  0.00     0.012 A 
ATOM     11  C   UNL     1       7.044  -0.664   3.419  1.00  0.00     0.012 A 
ATOM     12  C   UNL     1       9.163   0.855   2.761  1.00  0.00     0.001 A 
ATOM     13  C   UNL     1       7.977  -0.360   4.385  1.00  0.00     0.001 A 
ATOM     14  C   UNL     1       9.075   0.424   4.064  1.00  0.00     0.000 A 
ENDBRANCH   7   9
ENDBRANCH   1   7
BRANCH   5  15
ATOM     15  C   UNL     1       5.992   3.750  -1.051  1.00  0.00     0.253 C 
ATOM     16  N   UNL     1       7.315   4.016  -1.502  1.00  0.00    -0.337 N 
ATOM     17  C   UNL     1       8.242   2.945  -1.882  1.00  0.00     0.130 C 
ATOM     18  C   UNL     1       7.800   5.370  -1.601  1.00  0.00     0.130 C 
ATOM     19  C   UNL     1       8.699   3.113  -3.327  1.00  0.00     0.091 C 
ATOM     20  C   UNL     1       9.311   5.435  -1.705  1.00  0.00     0.091 C 
ATOM     21  S   UNL     1       9.740   4.618  -3.289  1.00  0.00    -0.158 SA
ATOM     22  O   UNL     1       5.241   4.739  -0.739  1.00  0.00    -0.269 OA
ENDBRANCH   5  15
TORSDOF 3
ENDMDL
MODEL 9
REMARK VINA RESULT:      -3.6      2.298      3.592
REMARK SMILES O=C(c1ccccc1)c1cccc(C(=O)N2CCSCC2)c1
REMARK SMILES IDX 9 1 10 2 11 3 12 4 13 5 22 6 2 7 1 8 3 9 4 10 8 11 5 12 7 13
REMARK SMILES IDX 6 14 14 15 16 16 17 17 21 18 18 19 20 20 19 21 15 22
REMARK H PARENT
ROOT
ATOM      1  C   UNL     1       5.277   2.363  -0.131  1.00  0.00     0.023 A 
ATOM      2  C   UNL     1       4.553   1.819  -1.171  1.00  0.00     0.012 A 
ATOM      3  C   UNL     1       4.415   0.443  -1.336  1.00  0.00     0.002 A 
ATOM      4  C   UNL     1       5.003  -0.445  -0.454  1.00  0.00     0.014 A 
ATOM      5  C   UNL     1       5.731   0.089   0.592  1.00  0.00     0.040 A 
ATOM      6  C   UNL     1       5.866   1.446   0.749  1.00  0.00     0.026 A 
ENDROOT
BRANCH   1   7
ATOM      7  C   UNL     1       5.473   3.785   0.075  1.00  0.00     0.193 C 
ATOM      8  O   UNL     1       4.499   4.541  -0.274  1.00  0.00    -0.289 OA
BRANCH   7   9
ATOM      9  C   UNL     1       6.626   4.427   0.622  1.00  0.00     0.022 A 
ATOM     10  C   UNL     1       7.889   4.359   0.062  1.00  0.00     0.012 A 
ATOM     11  C   UNL     1       6.514   5.185   1.771  1.00  0.00     0.012 A 
ATOM     12  C   UNL     1       8.950   5.021   0.643  1.00  0.00     0.001 A 
ATOM     13  C   UNL     1       7.571   5.847   2.356  1.00  0.00     0.001 A 
ATOM     14  C   UNL     1       8.833   5.775   1.788  1.00  0.00     0.000 A 
ENDBRANCH   7   9
ENDBRANCH   1   7
BRANCH   5  15
ATOM     15  C   UNL     1       6.377  -0.775   1.545  1.00  0.00     0.253 C 
ATOM     16  N   UNL     1       7.618  -0.503   2.184  1.00  0.00    -0.337 N 
ATOM     17  C   UNL     1       8.381   0.722   1.925  1.00  0.00     0.130 C 
ATOM     18  C   UNL     1       8.183  -1.441   3.123  1.00  0.00     0.130 C 
ATOM     19  C   UNL     1       8.592   1.509   3.215  1.00  0.00     0.091 C 
ATOM     20  C   UNL     1       9.653  -1.183   3.384  1.00  0.00     0.091 C 
ATOM     21  S   UNL     1       9.738   0.464   4.186  1.00  0.00    -0.158 SA
ATOM     22  O   UNL     1       5.770  -1.867   1.824  1.00  0.00    -0.269 OA
ENDBRANCH   5  15
TORSDOF 3
ENDMDL
