MODEL 1
REMARK VINA RESULT:      -3.5      0.000      0.000
REMARK SMILES NCC=CCN1CCN(c2ccccc2)CC1
REMARK SMILES IDX 3 1 2 2 1 3 4 6 5 7 6 8 7 9 17 10 8 11 16 12 9 13 10 14
REMARK SMILES IDX 11 15 15 16 12 17 14 18 13 19
REMARK H PARENT 1 4 1 5
ROOT
ATOM      1  C   UNL     1       8.354   4.084   4.960  1.00  0.00    -0.015 C 
ENDROOT
BRANCH   1   2
ATOM      2  C   UNL     1       8.459   5.067   3.881  1.00  0.00     0.105 C 
BRANCH   2   3
ATOM      3  N   UNL     1       9.719   5.786   3.873  1.00  0.00    -0.327 NA
ATOM      4  H   UNL     1       9.605   6.767   3.552  1.00  0.00     0.119 HD
ATOM      5  H   UNL     1      10.498   5.271   3.453  1.00  0.00     0.119 HD
ENDBRANCH   2   3
ENDBRANCH   1   2
BRANCH   1   6
ATOM      6  C   UNL     1       9.194   3.098   5.218  1.00  0.00    -0.015 C 
BRANCH   6   7
ATOM      7  C   UNL     1       9.167   1.752   4.644  1.00  0.00     0.111 C 
BRANCH   7   8
ATOM      8  N   UNL     1       8.227   1.608   3.554  1.00  0.00    -0.296 NA
ATOM      9  C   UNL     1       7.224   0.606   3.830  1.00  0.00     0.106 C 
ATOM     10  C   UNL     1       8.901   1.381   2.290  1.00  0.00     0.106 C 
ATOM     11  C   UNL     1       6.930  -0.231   2.587  1.00  0.00     0.132 C 
ATOM     12  C   UNL     1       7.967   1.460   1.120  1.00  0.00     0.132 C 
ATOM     13  N   UNL     1       6.822   0.595   1.424  1.00  0.00    -0.369 N 
BRANCH  13  14
ATOM     14  C   UNL     1       5.714   0.654   0.545  1.00  0.00     0.037 A 
ATOM     15  C   UNL     1       5.514   1.765  -0.277  1.00  0.00     0.026 A 
ATOM     16  C   UNL     1       4.769  -0.345   0.429  1.00  0.00     0.026 A 
ATOM     17  C   UNL     1       4.452   1.863  -1.144  1.00  0.00     0.002 A 
ATOM     18  C   UNL     1       3.690  -0.266  -0.437  1.00  0.00     0.002 A 
ATOM     19  C   UNL     1       3.526   0.848  -1.235  1.00  0.00     0.000 A 
ENDBRANCH  13  14
ENDBRANCH   7   8
ENDBRANCH   6   7
ENDBRANCH   1   6
TORSDOF 6
ENDMDL
MODEL 2
REMARK VINA RESULT:      -3.4      2.523      3.855
REMARK SMILES NCC=CCN1CCN(c2ccccc2)CC1
REMARK SMILES IDX 3 1 2 2 1 3 4 6 5 7 6 8 7 9 17 10 8 11 16 12 9 13 10 14
REMARK SMILES IDX 11 15 15 16 12 17 14 18 13 19
REMARK H PARENT 1 4 1 5
ROOT
ATOM      1  C   UNL     1       8.322  -0.697   3.825  1.00  0.00    -0.015 C 
ENDROOT
BRANCH   1   2
ATOM      2  C   UNL     1       8.112   0.332   4.844  1.00  0.00     0.105 C 
BRANCH   2   3
ATOM      3  N   UNL     1       9.325   1.037   5.214  1.00  0.00    -0.327 NA
ATOM      4  H   UNL     1       9.140   1.796   5.898  1.00  0.00     0.119 HD
ATOM      5  H   UNL     1       9.925   1.291   4.423  1.00  0.00     0.119 HD
ENDBRANCH   2   3
ENDBRANCH   1   2
BRANCH   1   6
ATOM      6  C   UNL     1       9.112  -0.616   2.768  1.00  0.00    -0.015 C 
BRANCH   6   7
ATOM      7  C   UNL     1       8.699  -0.616   1.364  1.00  0.00     0.111 C 
BRANCH   7   8
ATOM      8  N   UNL     1       7.899   0.532   0.998  1.00  0.00    -0.296 NA
ATOM      9  C   UNL     1       6.501   0.342   1.309  1.00  0.00     0.106 C 
ATOM     10  C   UNL     1       8.110   0.915  -0.384  1.00  0.00     0.106 C 
ATOM     11  C   UNL     1       5.614   0.893   0.195  1.00  0.00     0.132 C 
ATOM     12  C   UNL     1       7.473   2.230  -0.720  1.00  0.00     0.132 C 
ATOM     13  N   UNL     1       6.083   2.166  -0.255  1.00  0.00    -0.369 N 
BRANCH  13  14
ATOM     14  C   UNL     1       5.332   3.366  -0.292  1.00  0.00     0.037 A 
ATOM     15  C   UNL     1       4.818   3.848  -1.497  1.00  0.00     0.026 A 
ATOM     16  C   UNL     1       5.054   4.134   0.819  1.00  0.00     0.026 A 
ATOM     17  C   UNL     1       4.084   5.008  -1.578  1.00  0.00     0.002 A 
ATOM     18  C   UNL     1       4.318   5.307   0.761  1.00  0.00     0.002 A 
ATOM     19  C   UNL     1       3.825   5.752  -0.449  1.00  0.00     0.000 A 
ENDBRANCH  13  14
ENDBRANCH   7   8
ENDBRANCH   6   7
ENDBRANCH   1   6
TORSDOF 6
ENDMDL
MODEL 3
REMARK VINA RESULT:      -3.3      2.112      2.935
REMARK SMILES NCC=CCN1CCN(c2ccccc2)CC1
REMARK SMILES IDX 3 1 2 2 1 3 4 6 5 7 6 8 7 9 17 10 8 11 16 12 9 13 10 14
REMARK SMILES IDX 11 15 15 16 12 17 14 18 13 19
REMARK H PARENT 1 4 1 5
ROOT
ATOM      1  C   UNL     1       8.179   5.847   4.744  1.00  0.00    -0.015 C 
ENDROOT
BRANCH   1   2
ATOM      2  C   UNL     1       6.929   5.092   4.841  1.00  0.00     0.105 C 
BRANCH   2   3
ATOM      3  N   UNL     1       7.126   3.658   4.935  1.00  0.00    -0.327 NA
ATOM      4  H   UNL     1       6.447   3.215   5.584  1.00  0.00     0.119 HD
ATOM      5  H   UNL     1       8.102   3.372   5.053  1.00  0.00     0.119 HD
ENDBRANCH   2   3
ENDBRANCH   1   2
BRANCH   1   6
ATOM      6  C   UNL     1       9.133   5.687   3.844  1.00  0.00    -0.015 C 
BRANCH   6   7
ATOM      7  C   UNL     1       8.973   5.674   2.390  1.00  0.00     0.111 C 
BRANCH   7   8
ATOM      8  N   UNL     1       7.998   4.712   1.926  1.00  0.00    -0.296 NA
ATOM      9  C   UNL     1       8.618   3.513   1.411  1.00  0.00     0.106 C 
ATOM     10  C   UNL     1       7.069   5.301   0.982  1.00  0.00     0.106 C 
ATOM     11  C   UNL     1       7.904   3.025   0.153  1.00  0.00     0.132 C 
ATOM     12  C   UNL     1       5.918   4.394   0.666  1.00  0.00     0.132 C 
ATOM     13  N   UNL     1       6.484   3.088   0.310  1.00  0.00    -0.369 N 
BRANCH  13  14
ATOM     14  C   UNL     1       5.579   2.011   0.155  1.00  0.00     0.037 A 
ATOM     15  C   UNL     1       4.647   2.006  -0.885  1.00  0.00     0.026 A 
ATOM     16  C   UNL     1       5.541   0.911   0.987  1.00  0.00     0.026 A 
ATOM     17  C   UNL     1       3.750   0.981  -1.071  1.00  0.00     0.002 A 
ATOM     18  C   UNL     1       4.646  -0.133   0.818  1.00  0.00     0.002 A 
ATOM     19  C   UNL     1       3.738  -0.102  -0.222  1.00  0.00     0.000 A 
ENDBRANCH  13  14
ENDBRANCH   7   8
ENDBRANCH   6   7
ENDBRANCH   1   6
TORSDOF 6
ENDMDL
MODEL 4
REMARK VINA RESULT:      -3.0      2.173      3.819
REMARK SMILES NCC=CCN1CCN(c2ccccc2)CC1
REMARK SMILES IDX 3 1 2 2 1 3 4 6 5 7 6 8 7 9 17 10 8 11 16 12 9 13 10 14
REMARK SMILES IDX 11 15 15 16 12 17 14 18 13 19
REMARK H PARENT 1 4 1 5
ROOT
ATOM      1  C   UNL     1       9.325   0.605   3.105  1.00  0.00    -0.015 C 
ENDROOT
BRANCH   1   2
ATOM      2  C   UNL     1       8.958   1.187   4.396  1.00  0.00     0.105 C 
BRANCH   2   3
ATOM      3  N   UNL     1       7.601   1.698   4.436  1.00  0.00    -0.327 NA
ATOM      4  H   UNL     1       6.999   1.259   3.713  1.00  0.00     0.119 HD
ATOM      5  H   UNL     1       7.534   2.718   4.506  1.00  0.00     0.119 HD
ENDBRANCH   2   3
ENDBRANCH   1   2
BRANCH   1   6
ATOM      6  C   UNL     1       8.974  -0.582   2.643  1.00  0.00    -0.015 C 
BRANCH   6   7
ATOM      7  C   UNL     1       7.871  -0.875   1.727  1.00  0.00     0.111 C 
BRANCH   7   8
ATOM      8  N   UNL     1       7.285   0.306   1.133  1.00  0.00    -0.296 NA
ATOM      9  C   UNL     1       5.961   0.573   1.645  1.00  0.00     0.106 C 
ATOM     10  C   UNL     1       7.316   0.252  -0.315  1.00  0.00     0.106 C 
ATOM     11  C   UNL     1       5.025   1.029   0.528  1.00  0.00     0.132 C 
ATOM     12  C   UNL     1       6.929   1.555  -0.948  1.00  0.00     0.132 C 
ATOM     13  N   UNL     1       5.669   1.977  -0.328  1.00  0.00    -0.369 N 
BRANCH  13  14
ATOM     14  C   UNL     1       5.201   3.278  -0.630  1.00  0.00     0.037 A 
ATOM     15  C   UNL     1       4.308   3.489  -1.683  1.00  0.00     0.026 A 
ATOM     16  C   UNL     1       5.575   4.411   0.064  1.00  0.00     0.026 A 
ATOM     17  C   UNL     1       3.831   4.736  -2.011  1.00  0.00     0.002 A 
ATOM     18  C   UNL     1       5.107   5.677  -0.250  1.00  0.00     0.002 A 
ATOM     19  C   UNL     1       4.225   5.846  -1.298  1.00  0.00     0.000 A 
ENDBRANCH  13  14
ENDBRANCH   7   8
ENDBRANCH   6   7
ENDBRANCH   1   6
TORSDOF 6
ENDMDL
MODEL 5
REMARK VINA RESULT:      -3.0      0.937      1.529
REMARK SMILES NCC=CCN1CCN(c2ccccc2)CC1
REMARK SMILES IDX 3 1 2 2 1 3 4 6 5 7 6 8 7 9 17 10 8 11 16 12 9 13 10 14
REMARK SMILES IDX 11 15 15 16 12 17 14 18 13 19
REMARK H PARENT 1 4 1 5
ROOT
ATOM      1  C   UNL     1       8.779   2.877   5.212  1.00  0.00    -0.015 C 
ENDROOT
BRANCH   1   2
ATOM      2  C   UNL     1       7.971   3.617   4.242  1.00  0.00     0.105 C 
BRANCH   2   3
ATOM      3  N   UNL     1       8.707   4.007   3.053  1.00  0.00    -0.327 NA
ATOM      4  H   UNL     1       8.987   5.006   3.080  1.00  0.00     0.119 HD
ATOM      5  H   UNL     1       8.289   3.688   2.174  1.00  0.00     0.119 HD
ENDBRANCH   2   3
ENDBRANCH   1   2
BRANCH   1   6
ATOM      6  C   UNL     1       9.150   1.612   5.132  1.00  0.00    -0.015 C 
BRANCH   6   7
ATOM      7  C   UNL     1       9.495   0.874   3.917  1.00  0.00     0.111 C 
BRANCH   7   8
ATOM      8  N   UNL     1       8.450   0.889   2.917  1.00  0.00    -0.296 NA
ATOM      9  C   UNL     1       7.327   0.062   3.293  1.00  0.00     0.106 C 
ATOM     10  C   UNL     1       8.960   0.560   1.601  1.00  0.00     0.106 C 
ATOM     11  C   UNL     1       6.790  -0.712   2.091  1.00  0.00     0.132 C 
ATOM     12  C   UNL     1       7.950   0.793   0.518  1.00  0.00     0.132 C 
ATOM     13  N   UNL     1       6.712   0.125   0.933  1.00  0.00    -0.369 N 
BRANCH  13  14
ATOM     14  C   UNL     1       5.553   0.365   0.157  1.00  0.00     0.037 A 
ATOM     15  C   UNL     1       4.374  -0.342   0.397  1.00  0.00     0.026 A 
ATOM     16  C   UNL     1       5.492   1.286  -0.869  1.00  0.00     0.026 A 
ATOM     17  C   UNL     1       3.227  -0.141  -0.334  1.00  0.00     0.002 A 
ATOM     18  C   UNL     1       4.346   1.505  -1.618  1.00  0.00     0.002 A 
ATOM     19  C   UNL     1       3.199   0.786  -1.351  1.00  0.00     0.000 A 
ENDBRANCH  13  14
ENDBRANCH   7   8
ENDBRANCH   6   7
ENDBRANCH   1   6
TORSDOF 6
ENDMDL
MODEL 6
REMARK VINA RESULT:      -3.0      1.934      3.028
REMARK SMILES NCC=CCN1CCN(c2ccccc2)CC1
REMARK SMILES IDX 3 1 2 2 1 3 4 6 5 7 6 8 7 9 17 10 8 11 16 12 9 13 10 14
REMARK SMILES IDX 11 15 15 16 12 17 14 18 13 19
REMARK H PARENT 1 4 1 5
ROOT
ATOM      1  C   UNL     1       8.588   4.908   4.033  1.00  0.00    -0.015 C 
ENDROOT
BRANCH   1   2
ATOM      2  C   UNL     1       9.330   3.757   4.547  1.00  0.00     0.105 C 
BRANCH   2   3
ATOM      3  N   UNL     1       8.492   2.780   5.218  1.00  0.00    -0.327 NA
ATOM      4  H   UNL     1       8.968   2.358   6.038  1.00  0.00     0.119 HD
ATOM      5  H   UNL     1       8.025   2.121   4.589  1.00  0.00     0.119 HD
ENDBRANCH   2   3
ENDBRANCH   1   2
BRANCH   1   6
ATOM      6  C   UNL     1       8.996   5.772   3.120  1.00  0.00    -0.015 C 
BRANCH   6   7
ATOM      7  C   UNL     1       8.816   5.666   1.672  1.00  0.00     0.111 C 
BRANCH   7   8
ATOM      8  N   UNL     1       7.911   4.609   1.279  1.00  0.00    -0.296 NA
ATOM      9  C   UNL     1       8.602   3.366   1.028  1.00  0.00     0.106 C 
ATOM     10  C   UNL     1       7.070   5.007   0.167  1.00  0.00     0.106 C 
ATOM     11  C   UNL     1       8.027   2.658  -0.197  1.00  0.00     0.132 C 
ATOM     12  C   UNL     1       5.974   4.021  -0.107  1.00  0.00     0.132 C 
ATOM     13  N   UNL     1       6.598   2.696  -0.190  1.00  0.00    -0.369 N 
BRANCH  13  14
ATOM     14  C   UNL     1       5.734   1.576  -0.254  1.00  0.00     0.037 A 
ATOM     15  C   UNL     1       4.366   1.743  -0.478  1.00  0.00     0.026 A 
ATOM     16  C   UNL     1       6.154   0.271  -0.106  1.00  0.00     0.026 A 
ATOM     17  C   UNL     1       3.492   0.684  -0.547  1.00  0.00     0.002 A 
ATOM     18  C   UNL     1       5.291  -0.812  -0.171  1.00  0.00     0.002 A 
ATOM     19  C   UNL     1       3.944  -0.607  -0.394  1.00  0.00     0.000 A 
ENDBRANCH  13  14
ENDBRANCH   7   8
ENDBRANCH   6   7
ENDBRANCH   1   6
TORSDOF 6
ENDMDL
MODEL 7
REMARK VINA RESULT:      -2.8      2.469      5.585
REMARK SMILES NCC=CCN1CCN(c2ccccc2)CC1
REMARK SMILES IDX 3 1 2 2 1 3 4 6 5 7 6 8 7 9 17 10 8 11 16 12 9 13 10 14
REMARK SMILES IDX 11 15 15 16 12 17 14 18 13 19
REMARK H PARENT 1 4 1 5
ROOT
ATOM      1  C   UNL     1       3.939   4.252  -0.218  1.00  0.00    -0.015 C 
ENDROOT
BRANCH   1   2
ATOM      2  C   UNL     1       4.193   5.579   0.343  1.00  0.00     0.105 C 
BRANCH   2   3
ATOM      3  N   UNL     1       5.314   5.613   1.265  1.00  0.00    -0.327 NA
ATOM      4  H   UNL     1       5.662   4.660   1.488  1.00  0.00     0.119 HD
ATOM      5  H   UNL     1       5.182   6.235   2.067  1.00  0.00     0.119 HD
ENDBRANCH   2   3
ENDBRANCH   1   2
BRANCH   1   6
ATOM      6  C   UNL     1       4.450   3.750  -1.329  1.00  0.00    -0.015 C 
BRANCH   6   7
ATOM      7  C   UNL     1       4.788   2.350  -1.584  1.00  0.00     0.111 C 
BRANCH   7   8
ATOM      8  N   UNL     1       5.597   1.753  -0.544  1.00  0.00    -0.296 NA
ATOM      9  C   UNL     1       6.995   2.086  -0.684  1.00  0.00     0.106 C 
ATOM     10  C   UNL     1       5.377   0.323  -0.446  1.00  0.00     0.106 C 
ATOM     11  C   UNL     1       7.878   0.878  -0.380  1.00  0.00     0.132 C 
ATOM     12  C   UNL     1       6.024  -0.276   0.766  1.00  0.00     0.132 C 
ATOM     13  N   UNL     1       7.417   0.183   0.781  1.00  0.00    -0.369 N 
BRANCH  13  14
ATOM     14  C   UNL     1       8.181  -0.101   1.939  1.00  0.00     0.037 A 
ATOM     15  C   UNL     1       8.884   0.911   2.596  1.00  0.00     0.026 A 
ATOM     16  C   UNL     1       8.293  -1.358   2.498  1.00  0.00     0.026 A 
ATOM     17  C   UNL     1       9.637   0.678   3.722  1.00  0.00     0.002 A 
ATOM     18  C   UNL     1       9.047  -1.614   3.632  1.00  0.00     0.002 A 
ATOM     19  C   UNL     1       9.729  -0.588   4.255  1.00  0.00     0.000 A 
ENDBRANCH  13  14
ENDBRANCH   7   8
ENDBRANCH   6   7
ENDBRANCH   1   6
TORSDOF 6
ENDMDL
MODEL 8
REMARK VINA RESULT:      -2.6      2.672      4.370
REMARK SMILES NCC=CCN1CCN(c2ccccc2)CC1
REMARK SMILES IDX 3 1 2 2 1 3 4 6 5 7 6 8 7 9 17 10 8 11 16 12 9 13 10 14
REMARK SMILES IDX 11 15 15 16 12 17 14 18 13 19
REMARK H PARENT 1 4 1 5
ROOT
ATOM      1  C   UNL     1       7.806  -0.678   3.741  1.00  0.00    -0.015 C 
ENDROOT
BRANCH   1   2
ATOM      2  C   UNL     1       7.687  -1.311   2.428  1.00  0.00     0.105 C 
BRANCH   2   3
ATOM      3  N   UNL     1       8.967  -1.630   1.821  1.00  0.00    -0.327 NA
ATOM      4  H   UNL     1       9.576  -0.794   1.737  1.00  0.00     0.119 HD
ATOM      5  H   UNL     1       8.903  -2.218   0.985  1.00  0.00     0.119 HD
ENDBRANCH   2   3
ENDBRANCH   1   2
BRANCH   1   6
ATOM      6  C   UNL     1       8.822   0.041   4.186  1.00  0.00    -0.015 C 
BRANCH   6   7
ATOM      7  C   UNL     1       9.353   1.268   3.590  1.00  0.00     0.111 C 
BRANCH   7   8
ATOM      8  N   UNL     1       8.348   2.072   2.931  1.00  0.00    -0.296 NA
ATOM      9  C   UNL     1       8.545   2.125   1.501  1.00  0.00     0.106 C 
ATOM     10  C   UNL     1       8.241   3.391   3.523  1.00  0.00     0.106 C 
ATOM     11  C   UNL     1       8.279   3.529   0.964  1.00  0.00     0.132 C 
ATOM     12  C   UNL     1       7.057   4.155   3.013  1.00  0.00     0.132 C 
ATOM     13  N   UNL     1       7.099   4.089   1.548  1.00  0.00    -0.369 N 
BRANCH  13  14
ATOM     14  C   UNL     1       5.974   4.580   0.844  1.00  0.00     0.037 A 
ATOM     15  C   UNL     1       5.007   5.351   1.493  1.00  0.00     0.026 A 
ATOM     16  C   UNL     1       5.743   4.349  -0.496  1.00  0.00     0.026 A 
ATOM     17  C   UNL     1       3.900   5.847   0.848  1.00  0.00     0.002 A 
ATOM     18  C   UNL     1       4.633   4.839  -1.167  1.00  0.00     0.002 A 
ATOM     19  C   UNL     1       3.699   5.597  -0.491  1.00  0.00     0.000 A 
ENDBRANCH  13  14
ENDBRANCH   7   8
ENDBRANCH   6   7
ENDBRANCH   1   6
TORSDOF 6
ENDMDL
MODEL 9
REMARK VINA RESULT:      -2.6      2.383      3.086
REMARK SMILES NCC=CCN1CCN(c2ccccc2)CC1
REMARK SMILES IDX 3 1 2 2 1 3 4 6 5 7 6 8 7 9 17 10 8 11 16 12 9 13 10 14
REMARK SMILES IDX 11 15 15 16 12 17 14 18 13 19
REMARK H PARENT 1 4 1 5
ROOT
ATOM      1  C   UNL     1       9.412   5.838   0.186  1.00  0.00    -0.015 C 
ENDROOT
BRANCH   1   2
ATOM      2  C   UNL     1       8.816   4.969  -0.829  1.00  0.00     0.105 C 
BRANCH   2   3
ATOM      3  N   UNL     1       9.697   3.904  -1.270  1.00  0.00    -0.327 NA
ATOM      4  H   UNL     1       9.780   3.871  -2.304  1.00  0.00     0.119 HD
ATOM      5  H   UNL     1       9.534   3.003  -0.810  1.00  0.00     0.119 HD
ENDBRANCH   2   3
ENDBRANCH   1   2
BRANCH   1   6
ATOM      6  C   UNL     1       9.637   5.539   1.453  1.00  0.00    -0.015 C 
BRANCH   6   7
ATOM      7  C   UNL     1       9.724   4.199   2.034  1.00  0.00     0.111 C 
BRANCH   7   8
ATOM      8  N   UNL     1       8.661   3.315   1.609  1.00  0.00    -0.296 NA
ATOM      9  C   UNL     1       7.435   3.551   2.336  1.00  0.00     0.106 C 
ATOM     10  C   UNL     1       9.069   1.925   1.651  1.00  0.00     0.106 C 
ATOM     11  C   UNL     1       6.744   2.234   2.683  1.00  0.00     0.132 C 
ATOM     12  C   UNL     1       8.072   1.014   1.001  1.00  0.00     0.132 C 
ATOM     13  N   UNL     1       6.759   1.336   1.570  1.00  0.00    -0.369 N 
BRANCH  13  14
ATOM     14  C   UNL     1       5.627   0.733   0.972  1.00  0.00     0.037 A 
ATOM     15  C   UNL     1       5.721  -0.526   0.375  1.00  0.00     0.026 A 
ATOM     16  C   UNL     1       4.377   1.316   0.927  1.00  0.00     0.026 A 
ATOM     17  C   UNL     1       4.648  -1.147  -0.218  1.00  0.00     0.002 A 
ATOM     18  C   UNL     1       3.282   0.708   0.334  1.00  0.00     0.002 A 
ATOM     19  C   UNL     1       3.414  -0.537  -0.246  1.00  0.00     0.000 A 
ENDBRANCH  13  14
ENDBRANCH   7   8
ENDBRANCH   6   7
ENDBRANCH   1   6
TORSDOF 6
ENDMDL
