MODEL 1
REMARK VINA RESULT:      -2.4      0.000      0.000
REMARK SMILES CCCCCCCCCCCCCCCCc1cn(Cc2ccccc2)nn1
REMARK SMILES IDX 10 1 9 2 8 3 7 4 6 5 5 6 4 7 3 8 2 9 1 10 11 11 12 12 13 13
REMARK SMILES IDX 14 14 15 15 16 16 17 17 18 18 28 19 19 20 27 21 20 22 21 23
REMARK SMILES IDX 22 24 26 25 23 26 25 27 24 28
REMARK H PARENT
ROOT
ATOM      1  C   UNL     1       7.821   2.459   0.834  1.00  0.00     0.000 C 
ENDROOT
BRANCH   1   2
ATOM      2  C   UNL     1       9.059   2.139   0.078  1.00  0.00     0.000 C 
BRANCH   2   3
ATOM      3  C   UNL     1       8.801   2.045  -1.429  1.00  0.00    -0.000 C 
BRANCH   3   4
ATOM      4  C   UNL     1       9.590   3.047  -2.193  1.00  0.00    -0.000 C 
BRANCH   4   5
ATOM      5  C   UNL     1       8.858   4.393  -2.313  1.00  0.00    -0.000 C 
BRANCH   5   6
ATOM      6  C   UNL     1       8.125   4.731  -1.079  1.00  0.00    -0.000 C 
BRANCH   6   7
ATOM      7  C   UNL     1       6.715   4.310  -1.047  1.00  0.00    -0.000 C 
BRANCH   7   8
ATOM      8  C   UNL     1       5.729   4.804  -0.092  1.00  0.00    -0.000 C 
BRANCH   8   9
ATOM      9  C   UNL     1       4.305   4.973  -0.420  1.00  0.00    -0.003 C 
ATOM     10  C   UNL     1       4.288   5.335  -1.945  1.00  0.00     0.004 C 
ENDBRANCH   8   9
ENDBRANCH   7   8
ENDBRANCH   6   7
ENDBRANCH   5   6
ENDBRANCH   4   5
ENDBRANCH   3   4
ENDBRANCH   2   3
ENDBRANCH   1   2
BRANCH   1  11
ATOM     11  C   UNL     1       8.065   2.530   2.310  1.00  0.00     0.000 C 
BRANCH  11  12
ATOM     12  C   UNL     1       7.380   3.708   2.927  1.00  0.00     0.000 C 
BRANCH  12  13
ATOM     13  C   UNL     1       8.154   4.276   4.088  1.00  0.00     0.000 C 
BRANCH  13  14
ATOM     14  C   UNL     1       8.436   3.211   5.087  1.00  0.00     0.000 C 
BRANCH  14  15
ATOM     15  C   UNL     1       9.597   2.320   4.671  1.00  0.00     0.006 C 
BRANCH  15  16
ATOM     16  C   UNL     1       9.475   0.937   5.210  1.00  0.00     0.060 C 
BRANCH  16  17
ATOM     17  C   UNL     1       8.409   0.205   4.472  1.00  0.00     0.083 A 
ATOM     18  C   UNL     1       7.115   0.643   4.176  1.00  0.00     0.134 A 
ATOM     19  N   UNL     1       8.519  -1.033   3.951  1.00  0.00    -0.135 NA
ATOM     20  N   UNL     1       6.501  -0.349   3.492  1.00  0.00    -0.248 N 
ATOM     21  N   UNL     1       7.376  -1.356   3.368  1.00  0.00    -0.067 NA
BRANCH  20  22
ATOM     22  C   UNL     1       5.145  -0.380   2.961  1.00  0.00     0.181 C 
BRANCH  22  23
ATOM     23  C   UNL     1       5.087  -0.013   1.536  1.00  0.00    -0.026 A 
ATOM     24  C   UNL     1       5.673  -0.855   0.622  1.00  0.00     0.005 A 
ATOM     25  C   UNL     1       4.478   1.122   1.088  1.00  0.00     0.005 A 
ATOM     26  C   UNL     1       5.619  -0.512  -0.712  1.00  0.00     0.000 A 
ATOM     27  C   UNL     1       4.417   1.478  -0.250  1.00  0.00     0.000 A 
ATOM     28  C   UNL     1       5.005   0.634  -1.164  1.00  0.00     0.000 A 
ENDBRANCH  22  23
ENDBRANCH  20  22
ENDBRANCH  16  17
ENDBRANCH  15  16
ENDBRANCH  14  15
ENDBRANCH  13  14
ENDBRANCH  12  13
ENDBRANCH  11  12
ENDBRANCH   1  11
TORSDOF 17
ENDMDL
MODEL 2
REMARK VINA RESULT:      -2.0      1.478      2.277
REMARK SMILES CCCCCCCCCCCCCCCCc1cn(Cc2ccccc2)nn1
REMARK SMILES IDX 10 1 9 2 8 3 7 4 6 5 5 6 4 7 3 8 2 9 1 10 11 11 12 12 13 13
REMARK SMILES IDX 14 14 15 15 16 16 17 17 18 18 28 19 19 20 27 21 20 22 21 23
REMARK SMILES IDX 22 24 26 25 23 26 25 27 24 28
REMARK H PARENT
ROOT
ATOM      1  C   UNL     1       7.412   5.335   2.275  1.00  0.00     0.000 C 
ENDROOT
BRANCH   1   2
ATOM      2  C   UNL     1       8.279   5.001   1.115  1.00  0.00     0.000 C 
BRANCH   2   3
ATOM      3  C   UNL     1       9.547   4.259   1.543  1.00  0.00    -0.000 C 
BRANCH   3   4
ATOM      4  C   UNL     1       9.476   2.806   1.231  1.00  0.00    -0.000 C 
BRANCH   4   5
ATOM      5  C   UNL     1       8.610   2.521  -0.006  1.00  0.00    -0.000 C 
BRANCH   5   6
ATOM      6  C   UNL     1       8.208   3.763  -0.694  1.00  0.00    -0.000 C 
BRANCH   6   7
ATOM      7  C   UNL     1       7.391   3.578  -1.904  1.00  0.00    -0.000 C 
BRANCH   7   8
ATOM      8  C   UNL     1       6.039   3.031  -1.909  1.00  0.00    -0.000 C 
BRANCH   8   9
ATOM      9  C   UNL     1       4.831   3.871  -1.886  1.00  0.00    -0.003 C 
ATOM     10  C   UNL     1       5.036   4.829  -0.662  1.00  0.00     0.004 C 
ENDBRANCH   8   9
ENDBRANCH   7   8
ENDBRANCH   6   7
ENDBRANCH   5   6
ENDBRANCH   4   5
ENDBRANCH   3   4
ENDBRANCH   2   3
ENDBRANCH   1   2
BRANCH   1  11
ATOM     11  C   UNL     1       6.034   4.765   2.131  1.00  0.00     0.000 C 
BRANCH  11  12
ATOM     12  C   UNL     1       5.159   5.138   3.285  1.00  0.00     0.000 C 
BRANCH  12  13
ATOM     13  C   UNL     1       5.924   5.212   4.581  1.00  0.00     0.000 C 
BRANCH  13  14
ATOM     14  C   UNL     1       7.286   4.643   4.407  1.00  0.00     0.000 C 
BRANCH  14  15
ATOM     15  C   UNL     1       7.490   3.370   5.214  1.00  0.00     0.006 C 
BRANCH  15  16
ATOM     16  C   UNL     1       8.740   2.652   4.839  1.00  0.00     0.060 C 
BRANCH  16  17
ATOM     17  C   UNL     1       8.399   1.334   4.236  1.00  0.00     0.083 A 
ATOM     18  C   UNL     1       7.736   1.088   3.031  1.00  0.00     0.134 A 
ATOM     19  N   UNL     1       8.680   0.128   4.767  1.00  0.00    -0.135 NA
ATOM     20  N   UNL     1       7.645  -0.254   2.887  1.00  0.00    -0.248 N 
ATOM     21  N   UNL     1       8.227  -0.814   3.956  1.00  0.00    -0.067 NA
BRANCH  20  22
ATOM     22  C   UNL     1       7.042  -1.011   1.800  1.00  0.00     0.181 C 
BRANCH  22  23
ATOM     23  C   UNL     1       5.893  -0.315   1.195  1.00  0.00    -0.026 A 
ATOM     24  C   UNL     1       5.746   1.030   1.434  1.00  0.00     0.005 A 
ATOM     25  C   UNL     1       4.974  -0.947   0.410  1.00  0.00     0.005 A 
ATOM     26  C   UNL     1       4.672   1.682   0.868  1.00  0.00     0.000 A 
ATOM     27  C   UNL     1       3.890  -0.303  -0.165  1.00  0.00     0.000 A 
ATOM     28  C   UNL     1       3.744   1.044   0.076  1.00  0.00     0.000 A 
ENDBRANCH  22  23
ENDBRANCH  20  22
ENDBRANCH  16  17
ENDBRANCH  15  16
ENDBRANCH  14  15
ENDBRANCH  13  14
ENDBRANCH  12  13
ENDBRANCH  11  12
ENDBRANCH   1  11
TORSDOF 17
ENDMDL
MODEL 3
REMARK VINA RESULT:      -0.1      2.452      4.598
REMARK SMILES CCCCCCCCCCCCCCCCc1cn(Cc2ccccc2)nn1
REMARK SMILES IDX 10 1 9 2 8 3 7 4 6 5 5 6 4 7 3 8 2 9 1 10 11 11 12 12 13 13
REMARK SMILES IDX 14 14 15 15 16 16 17 17 18 18 28 19 19 20 27 21 20 22 21 23
REMARK SMILES IDX 22 24 26 25 23 26 25 27 24 28
REMARK H PARENT
ROOT
ATOM      1  C   UNL     1       9.043   3.266   1.401  1.00  0.00     0.000 C 
ENDROOT
BRANCH   1   2
ATOM      2  C   UNL     1       7.700   3.828   1.102  1.00  0.00     0.000 C 
BRANCH   2   3
ATOM      3  C   UNL     1       7.770   4.968   0.083  1.00  0.00    -0.000 C 
BRANCH   3   4
ATOM      4  C   UNL     1       8.316   4.515  -1.224  1.00  0.00    -0.000 C 
BRANCH   4   5
ATOM      5  C   UNL     1       7.283   3.728  -2.043  1.00  0.00    -0.000 C 
BRANCH   5   6
ATOM      6  C   UNL     1       7.233   2.308  -1.646  1.00  0.00    -0.000 C 
BRANCH   6   7
ATOM      7  C   UNL     1       8.415   1.509  -2.010  1.00  0.00    -0.000 C 
BRANCH   7   8
ATOM      8  C   UNL     1       9.666   2.069  -2.507  1.00  0.00    -0.000 C 
BRANCH   8   9
ATOM      9  C   UNL     1       9.733   3.287  -3.331  1.00  0.00    -0.003 C 
ATOM     10  C   UNL     1       8.841   2.969  -4.581  1.00  0.00     0.004 C 
ENDBRANCH   8   9
ENDBRANCH   7   8
ENDBRANCH   6   7
ENDBRANCH   5   6
ENDBRANCH   4   5
ENDBRANCH   3   4
ENDBRANCH   2   3
ENDBRANCH   1   2
BRANCH   1  11
ATOM     11  C   UNL     1       9.229   1.904   0.807  1.00  0.00     0.000 C 
BRANCH  11  12
ATOM     12  C   UNL     1       8.466   0.864   1.564  1.00  0.00     0.000 C 
BRANCH  12  13
ATOM     13  C   UNL     1       9.299  -0.357   1.856  1.00  0.00     0.000 C 
BRANCH  13  14
ATOM     14  C   UNL     1       8.424  -1.546   2.029  1.00  0.00     0.000 C 
BRANCH  14  15
ATOM     15  C   UNL     1       7.240  -1.538   1.074  1.00  0.00     0.006 C 
BRANCH  15  16
ATOM     16  C   UNL     1       5.977  -1.107   1.736  1.00  0.00     0.060 C 
BRANCH  16  17
ATOM     17  C   UNL     1       5.065  -0.502   0.727  1.00  0.00     0.083 A 
ATOM     18  C   UNL     1       5.263   0.664  -0.018  1.00  0.00     0.134 A 
ATOM     19  N   UNL     1       3.867  -0.992   0.353  1.00  0.00    -0.135 NA
ATOM     20  N   UNL     1       4.177   0.828  -0.807  1.00  0.00    -0.248 N 
ATOM     21  N   UNL     1       3.343  -0.192  -0.562  1.00  0.00    -0.067 NA
BRANCH  20  22
ATOM     22  C   UNL     1       3.902   1.890  -1.764  1.00  0.00     0.181 C 
BRANCH  22  23
ATOM     23  C   UNL     1       3.830   3.218  -1.130  1.00  0.00    -0.026 A 
ATOM     24  C   UNL     1       4.156   3.324   0.200  1.00  0.00     0.005 A 
ATOM     25  C   UNL     1       3.455   4.341  -1.807  1.00  0.00     0.005 A 
ATOM     26  C   UNL     1       4.088   4.566   0.793  1.00  0.00     0.000 A 
ATOM     27  C   UNL     1       3.383   5.596  -1.222  1.00  0.00     0.000 A 
ATOM     28  C   UNL     1       3.709   5.700   0.111  1.00  0.00     0.000 A 
ENDBRANCH  22  23
ENDBRANCH  20  22
ENDBRANCH  16  17
ENDBRANCH  15  16
ENDBRANCH  14  15
ENDBRANCH  13  14
ENDBRANCH  12  13
ENDBRANCH  11  12
ENDBRANCH   1  11
TORSDOF 17
ENDMDL
MODEL 4
REMARK VINA RESULT:       0.0      2.234      4.778
REMARK SMILES CCCCCCCCCCCCCCCCc1cn(Cc2ccccc2)nn1
REMARK SMILES IDX 10 1 9 2 8 3 7 4 6 5 5 6 4 7 3 8 2 9 1 10 11 11 12 12 13 13
REMARK SMILES IDX 14 14 15 15 16 16 17 17 18 18 28 19 19 20 27 21 20 22 21 23
REMARK SMILES IDX 22 24 26 25 23 26 25 27 24 28
REMARK H PARENT
ROOT
ATOM      1  C   UNL     1       7.096   1.650   3.574  1.00  0.00     0.000 C 
ENDROOT
BRANCH   1   2
ATOM      2  C   UNL     1       6.013   2.395   2.882  1.00  0.00     0.000 C 
BRANCH   2   3
ATOM      3  C   UNL     1       5.433   1.603   1.707  1.00  0.00    -0.000 C 
BRANCH   3   4
ATOM      4  C   UNL     1       4.046   2.027   1.380  1.00  0.00    -0.000 C 
BRANCH   4   5
ATOM      5  C   UNL     1       3.357   1.057   0.407  1.00  0.00    -0.000 C 
BRANCH   5   6
ATOM      6  C   UNL     1       4.321   0.138  -0.226  1.00  0.00    -0.000 C 
BRANCH   6   7
ATOM      7  C   UNL     1       5.421   0.785  -0.959  1.00  0.00    -0.000 C 
BRANCH   7   8
ATOM      8  C   UNL     1       5.465   2.204  -1.295  1.00  0.00    -0.000 C 
BRANCH   8   9
ATOM      9  C   UNL     1       4.522   2.842  -2.227  1.00  0.00    -0.003 C 
ATOM     10  C   UNL     1       5.266   4.129  -2.725  1.00  0.00     0.004 C 
ENDBRANCH   8   9
ENDBRANCH   7   8
ENDBRANCH   6   7
ENDBRANCH   5   6
ENDBRANCH   4   5
ENDBRANCH   3   4
ENDBRANCH   2   3
ENDBRANCH   1   2
BRANCH   1  11
ATOM     11  C   UNL     1       6.579   0.442   4.293  1.00  0.00     0.000 C 
BRANCH  11  12
ATOM     12  C   UNL     1       7.693  -0.413   4.808  1.00  0.00     0.000 C 
BRANCH  12  13
ATOM     13  C   UNL     1       9.011   0.317   4.830  1.00  0.00     0.000 C 
BRANCH  13  14
ATOM     14  C   UNL     1       9.667   0.233   3.498  1.00  0.00     0.000 C 
BRANCH  14  15
ATOM     15  C   UNL     1       9.709  -1.190   2.962  1.00  0.00     0.006 C 
BRANCH  15  16
ATOM     16  C   UNL     1       8.855  -1.369   1.754  1.00  0.00     0.060 C 
BRANCH  16  17
ATOM     17  C   UNL     1       9.004  -0.189   0.858  1.00  0.00     0.083 A 
ATOM     18  C   UNL     1       9.395   1.107   1.204  1.00  0.00     0.134 A 
ATOM     19  N   UNL     1       8.781  -0.176  -0.471  1.00  0.00    -0.135 NA
ATOM     20  N   UNL     1       9.390   1.846   0.071  1.00  0.00    -0.248 N 
ATOM     21  N   UNL     1       9.013   1.041  -0.933  1.00  0.00    -0.067 NA
BRANCH  20  22
ATOM     22  C   UNL     1       9.721   3.253  -0.095  1.00  0.00     0.181 C 
BRANCH  22  23
ATOM     23  C   UNL     1       8.615   4.145   0.294  1.00  0.00    -0.026 A 
ATOM     24  C   UNL     1       7.518   4.219  -0.529  1.00  0.00     0.005 A 
ATOM     25  C   UNL     1       8.636   4.896   1.432  1.00  0.00     0.005 A 
ATOM     26  C   UNL     1       6.483   5.053  -0.166  1.00  0.00     0.000 A 
ATOM     27  C   UNL     1       7.602   5.738   1.809  1.00  0.00     0.000 A 
ATOM     28  C   UNL     1       6.503   5.812   0.983  1.00  0.00     0.000 A 
ENDBRANCH  22  23
ENDBRANCH  20  22
ENDBRANCH  16  17
ENDBRANCH  15  16
ENDBRANCH  14  15
ENDBRANCH  13  14
ENDBRANCH  12  13
ENDBRANCH  11  12
ENDBRANCH   1  11
TORSDOF 17
ENDMDL
