MODEL 1
REMARK VINA RESULT:      14.7      0.000      0.000
REMARK SMILES CCC(C)C(NC(=O)C(Cc1ccc(Br)cc1)NC(=O)CCC(=O)OC)C(=O)NC(C)C(=O)CCC(=O)OCc1c(Cl)ccc(F)c1F
REMARK SMILES IDX 27 1 28 2 29 3 5 5 3 6 4 7 2 8 1 9 6 10 7 11 8 13 9 14 10 15
REMARK SMILES IDX 11 16 12 17 17 18 13 19 16 20 14 21 15 22 18 23 19 24 20 26
REMARK SMILES IDX 21 27 22 28 23 29 24 30 25 31 26 32 30 33 31 34 32 35 33 36
REMARK SMILES IDX 34 37 35 38 36 39 37 40 38 41 39 42 40 43 41 44 47 45 43 46
REMARK SMILES IDX 45 47 44 48 42 49 48 50 46 51
REMARK H PARENT 29 4 6 12 18 25
ROOT
ATOM      1  C   UNL     1       5.538  -1.162   2.012  1.00  0.00     0.243 C 
ATOM      2  O   UNL     1       4.600  -0.727   2.743  1.00  0.00    -0.273 OA
ATOM      3  N   UNL     1       5.322  -1.511   0.652  1.00  0.00    -0.345 N 
ATOM      4  H   UNL     1       6.109  -1.833   0.072  1.00  0.00     0.164 HD
ENDROOT
BRANCH   1   5
ATOM      5  C   UNL     1       6.862  -1.281   2.708  1.00  0.00     0.174 C 
BRANCH   5   6
ATOM      6  C   UNL     1       6.492  -1.490   4.162  1.00  0.00     0.018 C 
ATOM      7  C   UNL     1       5.124  -0.957   4.513  1.00  0.00     0.010 C 
BRANCH   6   8
ATOM      8  C   UNL     1       7.523  -1.216   5.187  1.00  0.00     0.002 C 
ATOM      9  C   UNL     1       8.876  -1.492   4.460  1.00  0.00     0.004 C 
ENDBRANCH   6   8
ENDBRANCH   5   6
BRANCH   5  10
ATOM     10  N   UNL     1       7.680  -0.177   2.392  1.00  0.00    -0.342 N 
ATOM     11  C   UNL     1       8.601   0.021   1.338  1.00  0.00     0.243 C 
ATOM     12  H   UNL     1       7.600   0.660   3.077  1.00  0.00     0.164 HD
ATOM     13  O   UNL     1       8.812  -0.880   0.543  1.00  0.00    -0.273 OA
BRANCH  11  14
ATOM     14  C   UNL     1       9.242   1.396   1.327  1.00  0.00     0.175 C 
BRANCH  14  15
ATOM     15  C   UNL     1       9.371   1.730   2.800  1.00  0.00     0.070 C 
BRANCH  15  16
ATOM     16  C   UNL     1       8.437   2.651   3.392  1.00  0.00    -0.045 A 
ATOM     17  C   UNL     1       8.045   3.772   2.696  1.00  0.00     0.005 A 
ATOM     18  C   UNL     1       7.882   2.379   4.623  1.00  0.00     0.005 A 
ATOM     19  C   UNL     1       7.091   4.610   3.243  1.00  0.00     0.016 A 
ATOM     20  C   UNL     1       6.919   3.196   5.211  1.00  0.00     0.016 A 
ATOM     21  C   UNL     1       6.554   4.311   4.472  1.00  0.00     0.017 A 
ATOM     22  Br  UNL     1       5.221   5.532   5.149  1.00  0.00    -0.051 Br
ENDBRANCH  15  16
ENDBRANCH  14  15
BRANCH  14  23
ATOM     23  N   UNL     1       8.511   2.415   0.687  1.00  0.00    -0.344 N 
ATOM     24  C   UNL     1       8.743   3.790   0.538  1.00  0.00     0.221 C 
ATOM     25  H   UNL     1       7.582   2.078   0.215  1.00  0.00     0.164 HD
ATOM     26  O   UNL     1       9.736   4.412   0.975  1.00  0.00    -0.275 OA
BRANCH  24  27
ATOM     27  C   UNL     1       7.674   4.542  -0.222  1.00  0.00     0.111 C 
BRANCH  27  28
ATOM     28  C   UNL     1       6.866   3.617  -1.071  1.00  0.00     0.132 C 
BRANCH  28  29
ATOM     29  C   UNL     1       7.476   3.551  -2.441  1.00  0.00     0.306 C 
ATOM     30  O   UNL     1       6.681   3.310  -3.377  1.00  0.00    -0.252 OA
BRANCH  29  31
ATOM     31  O   UNL     1       8.855   3.749  -2.654  1.00  0.00    -0.469 OA
ATOM     32  C   UNL     1       9.735   3.602  -1.529  1.00  0.00     0.282 C 
ENDBRANCH  29  31
ENDBRANCH  28  29
ENDBRANCH  27  28
ENDBRANCH  24  27
ENDBRANCH  14  23
ENDBRANCH  11  14
ENDBRANCH   5  10
ENDBRANCH   1   5
BRANCH   3  33
ATOM     33  C   UNL     1       3.943  -1.363   0.190  1.00  0.00     0.146 C 
ATOM     34  C   UNL     1       3.543  -2.612  -0.583  1.00  0.00     0.039 C 
BRANCH  33  35
ATOM     35  C   UNL     1       3.858  -0.203  -0.711  1.00  0.00     0.155 C 
ATOM     36  O   UNL     1       3.226   0.782  -0.297  1.00  0.00    -0.297 OA
BRANCH  35  37
ATOM     37  C   UNL     1       4.459  -0.159  -2.048  1.00  0.00     0.089 C 
BRANCH  37  38
ATOM     38  C   UNL     1       5.740   0.517  -2.245  1.00  0.00     0.130 C 
BRANCH  38  39
ATOM     39  C   UNL     1       6.433   0.890  -0.961  1.00  0.00     0.306 C 
ATOM     40  O   UNL     1       7.638   1.194  -0.941  1.00  0.00    -0.252 OA
BRANCH  39  41
ATOM     41  O   UNL     1       5.608   0.861   0.156  1.00  0.00    -0.461 OA
BRANCH  41  42
ATOM     42  C   UNL     1       4.237   1.152   0.186  1.00  0.00     0.273 C 
BRANCH  42  43
ATOM     43  C   UNL     1       4.019   2.414   0.941  1.00  0.00     0.047 A 
ATOM     44  C   UNL     1       3.064   2.406   1.949  1.00  0.00     0.050 A 
ATOM     45  C   UNL     1       4.767   3.542   0.649  1.00  0.00     0.166 A 
ATOM     46  C   UNL     1       2.867   3.565   2.664  1.00  0.00     0.024 A 
ATOM     47  C   UNL     1       4.544   4.706   1.395  1.00  0.00     0.159 A 
ATOM     48  C   UNL     1       3.597   4.720   2.400  1.00  0.00     0.044 A 
ATOM     49  Cl  UNL     1       2.185   0.923   2.252  1.00  0.00    -0.084 Cl
ATOM     50  F   UNL     1       5.713   3.584  -0.319  1.00  0.00    -0.203 F 
ATOM     51  F   UNL     1       5.279   5.843   1.141  1.00  0.00    -0.204 F 
ENDBRANCH  42  43
ENDBRANCH  41  42
ENDBRANCH  39  41
ENDBRANCH  38  39
ENDBRANCH  37  38
ENDBRANCH  35  37
ENDBRANCH  33  35
ENDBRANCH   3  33
TORSDOF 20
ENDMDL
MODEL 2
REMARK VINA RESULT:      15.7      2.952      5.467
REMARK SMILES CCC(C)C(NC(=O)C(Cc1ccc(Br)cc1)NC(=O)CCC(=O)OC)C(=O)NC(C)C(=O)CCC(=O)OCc1c(Cl)ccc(F)c1F
REMARK SMILES IDX 27 1 28 2 29 3 5 5 3 6 4 7 2 8 1 9 6 10 7 11 8 13 9 14 10 15
REMARK SMILES IDX 11 16 12 17 17 18 13 19 16 20 14 21 15 22 18 23 19 24 20 26
REMARK SMILES IDX 21 27 22 28 23 29 24 30 25 31 26 32 30 33 31 34 32 35 33 36
REMARK SMILES IDX 34 37 35 38 36 39 37 40 38 41 39 42 40 43 41 44 47 45 43 46
REMARK SMILES IDX 45 47 44 48 42 49 48 50 46 51
REMARK H PARENT 29 4 6 12 18 25
ROOT
ATOM      1  C   UNL     1       5.985   0.853   0.519  1.00  0.00     0.243 C 
ATOM      2  O   UNL     1       6.538   1.869   0.005  1.00  0.00    -0.273 OA
ATOM      3  N   UNL     1       5.608  -0.268  -0.268  1.00  0.00    -0.345 N 
ATOM      4  H   UNL     1       5.187  -1.094   0.180  1.00  0.00     0.164 HD
ENDROOT
BRANCH   1   5
ATOM      5  C   UNL     1       5.764   0.950   2.000  1.00  0.00     0.174 C 
BRANCH   5   6
ATOM      6  C   UNL     1       4.520   0.118   2.237  1.00  0.00     0.018 C 
ATOM      7  C   UNL     1       3.436   0.861   2.980  1.00  0.00     0.010 C 
BRANCH   6   8
ATOM      8  C   UNL     1       4.696  -1.283   2.679  1.00  0.00     0.002 C 
ATOM      9  C   UNL     1       4.625  -1.211   4.236  1.00  0.00     0.004 C 
ENDBRANCH   6   8
ENDBRANCH   5   6
BRANCH   5  10
ATOM     10  N   UNL     1       5.735   2.301   2.402  1.00  0.00    -0.342 N 
ATOM     11  C   UNL     1       5.387   3.471   1.689  1.00  0.00     0.243 C 
ATOM     12  H   UNL     1       6.041   2.478   3.427  1.00  0.00     0.164 HD
ATOM     13  O   UNL     1       5.084   3.392   0.509  1.00  0.00    -0.273 OA
BRANCH  11  14
ATOM     14  C   UNL     1       5.436   4.739   2.520  1.00  0.00     0.175 C 
BRANCH  14  15
ATOM     15  C   UNL     1       5.440   5.838   1.476  1.00  0.00     0.070 C 
BRANCH  15  16
ATOM     16  C   UNL     1       4.953   5.547   0.153  1.00  0.00    -0.045 A 
ATOM     17  C   UNL     1       5.818   5.068  -0.804  1.00  0.00     0.005 A 
ATOM     18  C   UNL     1       3.614   5.681  -0.138  1.00  0.00     0.005 A 
ATOM     19  C   UNL     1       5.327   4.721  -2.049  1.00  0.00     0.016 A 
ATOM     20  C   UNL     1       3.076   5.345  -1.378  1.00  0.00     0.016 A 
ATOM     21  C   UNL     1       3.985   4.864  -2.309  1.00  0.00     0.017 A 
ATOM     22  Br  UNL     1       3.388   4.343  -4.070  1.00  0.00    -0.051 Br
ENDBRANCH  15  16
ENDBRANCH  14  15
BRANCH  14  23
ATOM     23  N   UNL     1       6.561   4.892   3.352  1.00  0.00    -0.344 N 
ATOM     24  C   UNL     1       7.849   5.392   3.113  1.00  0.00     0.221 C 
ATOM     25  H   UNL     1       6.409   4.557   4.384  1.00  0.00     0.164 HD
ATOM     26  O   UNL     1       8.264   5.844   2.023  1.00  0.00    -0.275 OA
BRANCH  24  27
ATOM     27  C   UNL     1       8.779   5.361   4.305  1.00  0.00     0.111 C 
BRANCH  27  28
ATOM     28  C   UNL     1       8.697   4.053   5.019  1.00  0.00     0.132 C 
BRANCH  28  29
ATOM     29  C   UNL     1       7.276   3.568   4.988  1.00  0.00     0.306 C 
ATOM     30  O   UNL     1       7.117   2.343   5.196  1.00  0.00    -0.252 OA
BRANCH  29  31
ATOM     31  O   UNL     1       6.196   4.438   4.741  1.00  0.00    -0.469 OA
ATOM     32  C   UNL     1       6.313   5.796   5.188  1.00  0.00     0.282 C 
ENDBRANCH  29  31
ENDBRANCH  28  29
ENDBRANCH  27  28
ENDBRANCH  24  27
ENDBRANCH  14  23
ENDBRANCH  11  14
ENDBRANCH   5  10
ENDBRANCH   1   5
BRANCH   3  33
ATOM     33  C   UNL     1       5.872  -0.132  -1.699  1.00  0.00     0.146 C 
ATOM     34  C   UNL     1       6.969  -1.111  -2.096  1.00  0.00     0.039 C 
BRANCH  33  35
ATOM     35  C   UNL     1       6.338   1.236  -1.976  1.00  0.00     0.155 C 
ATOM     36  O   UNL     1       5.587   2.163  -1.634  1.00  0.00    -0.297 OA
BRANCH  35  37
ATOM     37  C   UNL     1       7.612   1.550  -2.631  1.00  0.00     0.089 C 
BRANCH  37  38
ATOM     38  C   UNL     1       8.812   1.755  -1.822  1.00  0.00     0.130 C 
BRANCH  38  39
ATOM     39  C   UNL     1       9.205   0.554  -1.003  1.00  0.00     0.306 C 
ATOM     40  O   UNL     1       9.732  -0.442  -1.527  1.00  0.00    -0.252 OA
BRANCH  39  41
ATOM     41  O   UNL     1       8.927   0.679   0.352  1.00  0.00    -0.461 OA
BRANCH  41  42
ATOM     42  C   UNL     1       8.206  -0.228   1.141  1.00  0.00     0.273 C 
BRANCH  42  43
ATOM     43  C   UNL     1       8.716  -0.179   2.536  1.00  0.00     0.047 A 
ATOM     44  C   UNL     1       9.043  -1.383   3.147  1.00  0.00     0.050 A 
ATOM     45  C   UNL     1       8.873   1.036   3.182  1.00  0.00     0.166 A 
ATOM     46  C   UNL     1       9.532  -1.346   4.433  1.00  0.00     0.024 A 
ATOM     47  C   UNL     1       9.373   1.041   4.489  1.00  0.00     0.159 A 
ATOM     48  C   UNL     1       9.701  -0.145   5.116  1.00  0.00     0.044 A 
ATOM     49  Cl  UNL     1       8.826  -2.863   2.239  1.00  0.00    -0.084 Cl
ATOM     50  F   UNL     1       8.574   2.228   2.616  1.00  0.00    -0.203 F 
ATOM     51  F   UNL     1       9.554   2.232   5.158  1.00  0.00    -0.204 F 
ENDBRANCH  42  43
ENDBRANCH  41  42
ENDBRANCH  39  41
ENDBRANCH  38  39
ENDBRANCH  37  38
ENDBRANCH  35  37
ENDBRANCH  33  35
ENDBRANCH   3  33
TORSDOF 20
ENDMDL
