MODEL 1
REMARK VINA RESULT:       5.6      0.000      0.000
REMARK SMILES CCCCC1(O)C2C3CCC(=O)CC3(C)CCC2C2(C)C(=O)c3ccccc3C(=O)C12
REMARK SMILES IDX 4 1 3 2 2 3 1 4 5 5 7 6 31 7 8 8 18 9 29 10 19 11 9 12 14 13
REMARK SMILES IDX 17 14 28 15 21 16 10 17 13 18 16 19 27 20 23 21 11 22 26 23
REMARK SMILES IDX 24 24 25 25 30 26 20 27 15 28 22 29 12 30 6 31
REMARK H PARENT 6 32
ROOT
ATOM      1  C   UNL     1       8.669   3.918  -0.212  1.00  0.00     0.036 C 
ENDROOT
BRANCH   1   2
ATOM      2  C   UNL     1       8.599   4.945   0.861  1.00  0.00     0.003 C 
BRANCH   2   3
ATOM      3  C   UNL     1       9.271   4.319   2.097  1.00  0.00    -0.003 C 
ATOM      4  C   UNL     1       8.245   3.714   3.015  1.00  0.00     0.004 C 
ENDBRANCH   2   3
ENDBRANCH   1   2
BRANCH   1   5
ATOM      5  C   UNL     1       7.569   2.889  -0.206  1.00  0.00     0.079 C 
ATOM      6  C   UNL     1       6.359   3.466   0.442  1.00  0.00     0.029 C 
ATOM      7  C   UNL     1       7.809   1.782   0.746  1.00  0.00     0.107 C 
ATOM      8  C   UNL     1       5.575   4.478  -0.269  1.00  0.00     0.002 C 
ATOM      9  C   UNL     1       5.483   2.232   0.714  1.00  0.00     0.010 C 
ATOM     10  C   UNL     1       8.668   0.669   0.312  1.00  0.00     0.170 C 
ATOM     11  C   UNL     1       6.406   1.143   0.810  1.00  0.00     0.047 C 
ATOM     12  C   UNL     1       5.316   4.126  -1.687  1.00  0.00     0.012 C 
ATOM     13  C   UNL     1       4.421   4.823   0.598  1.00  0.00    -0.022 C 
ATOM     14  C   UNL     1       4.636   2.643   1.864  1.00  0.00     0.005 C 
ATOM     15  C   UNL     1       8.651  -0.539   1.176  1.00  0.00     0.029 A 
ATOM     16  C   UNL     1       6.477   0.300   2.001  1.00  0.00     0.170 C 
ATOM     17  C   UNL     1       4.266   4.926  -2.388  1.00  0.00     0.076 C 
ATOM     18  C   UNL     1       3.326   5.583  -0.123  1.00  0.00     0.082 C 
ATOM     19  C   UNL     1       3.735   3.719   1.325  1.00  0.00     0.008 C 
ATOM     20  C   UNL     1       9.673  -1.438   1.144  1.00  0.00     0.012 A 
ATOM     21  C   UNL     1       7.551  -0.727   2.026  1.00  0.00     0.029 A 
ATOM     22  C   UNL     1       3.073   4.968  -1.475  1.00  0.00     0.133 C 
ATOM     23  C   UNL     1       9.599  -2.558   1.982  1.00  0.00     0.001 A 
ATOM     24  C   UNL     1       7.457  -1.820   2.858  1.00  0.00     0.012 A 
ATOM     25  C   UNL     1       8.507  -2.745   2.827  1.00  0.00     0.001 A 
ATOM     26  O   UNL     1       9.394   0.682  -0.715  1.00  0.00    -0.294 OA
ATOM     27  C   UNL     1       6.248   0.202  -0.393  1.00  0.00     0.021 C 
ATOM     28  C   UNL     1       4.873   5.815   1.672  1.00  0.00     0.012 C 
ATOM     29  O   UNL     1       5.714   0.375   2.986  1.00  0.00    -0.294 OA
ATOM     30  O   UNL     1       1.982   4.539  -1.800  1.00  0.00    -0.300 OA
BRANCH   5  31
ATOM     31  O   UNL     1       7.349   2.411  -1.487  1.00  0.00    -0.389 OA
ATOM     32  H   UNL     1       6.649   2.932  -1.961  1.00  0.00     0.211 HD
ENDBRANCH   5  31
ENDBRANCH   1   5
TORSDOF 4
ENDMDL
MODEL 2
REMARK VINA RESULT:       6.4      2.802      6.615
REMARK SMILES CCCCC1(O)C2C3CCC(=O)CC3(C)CCC2C2(C)C(=O)c3ccccc3C(=O)C12
REMARK SMILES IDX 4 1 3 2 2 3 1 4 5 5 7 6 31 7 8 8 18 9 29 10 19 11 9 12 14 13
REMARK SMILES IDX 17 14 28 15 21 16 10 17 13 18 16 19 27 20 23 21 11 22 26 23
REMARK SMILES IDX 24 24 25 25 30 26 20 27 15 28 22 29 12 30 6 31
REMARK H PARENT 6 32
ROOT
ATOM      1  C   UNL     1       5.413   0.548   0.280  1.00  0.00     0.036 C 
ENDROOT
BRANCH   1   2
ATOM      2  C   UNL     1       5.066  -0.296  -0.893  1.00  0.00     0.003 C 
BRANCH   2   3
ATOM      3  C   UNL     1       4.991  -1.743  -0.372  1.00  0.00    -0.003 C 
ATOM      4  C   UNL     1       3.586  -2.271  -0.458  1.00  0.00     0.004 C 
ENDBRANCH   2   3
ENDBRANCH   1   2
BRANCH   1   5
ATOM      5  C   UNL     1       6.883   0.799   0.495  1.00  0.00     0.079 C 
ATOM      6  C   UNL     1       7.138   1.014   1.946  1.00  0.00     0.029 C 
ATOM      7  C   UNL     1       7.328   2.123   0.005  1.00  0.00     0.107 C 
ATOM      8  C   UNL     1       7.074  -0.125   2.864  1.00  0.00     0.002 C 
ATOM      9  C   UNL     1       8.554   1.616   1.969  1.00  0.00     0.010 C 
ATOM     10  C   UNL     1       7.647   2.262  -1.424  1.00  0.00     0.170 C 
ATOM     11  C   UNL     1       8.705   2.239   0.690  1.00  0.00     0.047 C 
ATOM     12  C   UNL     1       7.787  -1.323   2.359  1.00  0.00     0.012 C 
ATOM     13  C   UNL     1       7.415   0.385   4.215  1.00  0.00    -0.022 C 
ATOM     14  C   UNL     1       8.585   2.401   3.230  1.00  0.00     0.005 C 
ATOM     15  C   UNL     1       8.353   3.509  -1.813  1.00  0.00     0.029 A 
ATOM     16  C   UNL     1       9.024   3.659   0.561  1.00  0.00     0.170 C 
ATOM     17  C   UNL     1       8.049  -2.408   3.354  1.00  0.00     0.076 C 
ATOM     18  C   UNL     1       7.741  -0.708   5.213  1.00  0.00     0.082 C 
ATOM     19  C   UNL     1       8.518   1.380   4.332  1.00  0.00     0.008 C 
ATOM     20  C   UNL     1       8.329   3.956  -3.098  1.00  0.00     0.012 A 
ATOM     21  C   UNL     1       9.046   4.214  -0.818  1.00  0.00     0.029 A 
ATOM     22  C   UNL     1       8.625  -1.746   4.574  1.00  0.00     0.133 C 
ATOM     23  C   UNL     1       9.014   5.139  -3.404  1.00  0.00     0.001 A 
ATOM     24  C   UNL     1       9.727   5.378  -1.094  1.00  0.00     0.012 A 
ATOM     25  C   UNL     1       9.702   5.839  -2.415  1.00  0.00     0.001 A 
ATOM     26  O   UNL     1       7.364   1.412  -2.307  1.00  0.00    -0.294 OA
ATOM     27  C   UNL     1       9.732   1.473  -0.157  1.00  0.00     0.021 C 
ATOM     28  C   UNL     1       6.183   1.052   4.831  1.00  0.00     0.012 C 
ATOM     29  O   UNL     1       9.275   4.432   1.509  1.00  0.00    -0.294 OA
ATOM     30  O   UNL     1       9.725  -2.025   5.014  1.00  0.00    -0.300 OA
BRANCH   5  31
ATOM     31  O   UNL     1       7.633  -0.221  -0.065  1.00  0.00    -0.389 OA
ATOM     32  H   UNL     1       7.857  -0.037  -1.014  1.00  0.00     0.211 HD
ENDBRANCH   5  31
ENDBRANCH   1   5
TORSDOF 4
ENDMDL
MODEL 3
REMARK VINA RESULT:       6.7      1.838      2.334
REMARK SMILES CCCCC1(O)C2C3CCC(=O)CC3(C)CCC2C2(C)C(=O)c3ccccc3C(=O)C12
REMARK SMILES IDX 4 1 3 2 2 3 1 4 5 5 7 6 31 7 8 8 18 9 29 10 19 11 9 12 14 13
REMARK SMILES IDX 17 14 28 15 21 16 10 17 13 18 16 19 27 20 23 21 11 22 26 23
REMARK SMILES IDX 24 24 25 25 30 26 20 27 15 28 22 29 12 30 6 31
REMARK H PARENT 6 32
ROOT
ATOM      1  C   UNL     1       8.234   4.122   2.752  1.00  0.00     0.036 C 
ENDROOT
BRANCH   1   2
ATOM      2  C   UNL     1       7.868   4.235   4.189  1.00  0.00     0.003 C 
BRANCH   2   3
ATOM      3  C   UNL     1       6.898   5.426   4.291  1.00  0.00    -0.003 C 
ATOM      4  C   UNL     1       5.650   5.038   5.033  1.00  0.00     0.004 C 
ENDBRANCH   2   3
ENDBRANCH   1   2
BRANCH   1   5
ATOM      5  C   UNL     1       7.674   2.928   2.025  1.00  0.00     0.079 C 
ATOM      6  C   UNL     1       6.269   3.212   1.623  1.00  0.00     0.029 C 
ATOM      7  C   UNL     1       7.408   1.774   2.914  1.00  0.00     0.107 C 
ATOM      8  C   UNL     1       6.009   4.151   0.530  1.00  0.00     0.002 C 
ATOM      9  C   UNL     1       5.722   1.823   1.250  1.00  0.00     0.010 C 
ATOM     10  C   UNL     1       8.530   0.882   3.245  1.00  0.00     0.170 C 
ATOM     11  C   UNL     1       6.518   0.904   2.003  1.00  0.00     0.047 C 
ATOM     12  C   UNL     1       6.878   3.927  -0.651  1.00  0.00     0.012 C 
ATOM     13  C   UNL     1       4.540   4.192   0.331  1.00  0.00    -0.022 C 
ATOM     14  C   UNL     1       4.257   1.948   1.466  1.00  0.00     0.005 C 
ATOM     15  C   UNL     1       8.167  -0.404   3.895  1.00  0.00     0.029 A 
ATOM     16  C   UNL     1       5.917  -0.048   2.935  1.00  0.00     0.170 C 
ATOM     17  C   UNL     1       6.470   4.613  -1.915  1.00  0.00     0.076 C 
ATOM     18  C   UNL     1       4.121   4.833  -0.977  1.00  0.00     0.082 C 
ATOM     19  C   UNL     1       3.784   2.911   0.412  1.00  0.00     0.008 C 
ATOM     20  C   UNL     1       9.081  -1.105   4.618  1.00  0.00     0.012 A 
ATOM     21  C   UNL     1       6.854  -0.873   3.741  1.00  0.00     0.029 A 
ATOM     22  C   UNL     1       5.002   4.346  -2.098  1.00  0.00     0.133 C 
ATOM     23  C   UNL     1       8.679  -2.311   5.207  1.00  0.00     0.001 A 
ATOM     24  C   UNL     1       6.436  -2.055   4.309  1.00  0.00     0.012 A 
ATOM     25  C   UNL     1       7.374  -2.778   5.055  1.00  0.00     0.001 A 
ATOM     26  O   UNL     1       9.740   1.137   3.018  1.00  0.00    -0.294 OA
ATOM     27  C   UNL     1       7.428   0.095   1.067  1.00  0.00     0.021 C 
ATOM     28  C   UNL     1       3.912   5.115   1.378  1.00  0.00     0.012 C 
ATOM     29  O   UNL     1       4.691  -0.218   3.104  1.00  0.00    -0.294 OA
ATOM     30  O   UNL     1       4.555   3.777  -3.076  1.00  0.00    -0.300 OA
BRANCH   5  31
ATOM     31  O   UNL     1       8.501   2.571   0.974  1.00  0.00    -0.389 OA
ATOM     32  H   UNL     1       8.034   1.992   0.317  1.00  0.00     0.211 HD
ENDBRANCH   5  31
ENDBRANCH   1   5
TORSDOF 4
ENDMDL
MODEL 4
REMARK VINA RESULT:       6.8      2.301      4.110
REMARK SMILES CCCCC1(O)C2C3CCC(=O)CC3(C)CCC2C2(C)C(=O)c3ccccc3C(=O)C12
REMARK SMILES IDX 4 1 3 2 2 3 1 4 5 5 7 6 31 7 8 8 18 9 29 10 19 11 9 12 14 13
REMARK SMILES IDX 17 14 28 15 21 16 10 17 13 18 16 19 27 20 23 21 11 22 26 23
REMARK SMILES IDX 24 24 25 25 30 26 20 27 15 28 22 29 12 30 6 31
REMARK H PARENT 6 32
ROOT
ATOM      1  C   UNL     1       4.904   2.646   1.732  1.00  0.00     0.036 C 
ENDROOT
BRANCH   1   2
ATOM      2  C   UNL     1       4.015   1.732   0.966  1.00  0.00     0.003 C 
BRANCH   2   3
ATOM      3  C   UNL     1       4.882   0.521   0.575  1.00  0.00    -0.003 C 
ATOM      4  C   UNL     1       5.025   0.425  -0.918  1.00  0.00     0.004 C 
ENDBRANCH   2   3
ENDBRANCH   1   2
BRANCH   1   5
ATOM      5  C   UNL     1       6.382   2.458   1.512  1.00  0.00     0.079 C 
ATOM      6  C   UNL     1       6.649   2.322   0.054  1.00  0.00     0.029 C 
ATOM      7  C   UNL     1       6.872   1.128   1.939  1.00  0.00     0.107 C 
ATOM      8  C   UNL     1       6.547   3.500  -0.809  1.00  0.00     0.002 C 
ATOM      9  C   UNL     1       8.085   1.772   0.008  1.00  0.00     0.010 C 
ATOM     10  C   UNL     1       7.192   0.931   3.362  1.00  0.00     0.170 C 
ATOM     11  C   UNL     1       8.255   1.093   1.256  1.00  0.00     0.047 C 
ATOM     12  C   UNL     1       7.216   4.698  -0.243  1.00  0.00     0.012 C 
ATOM     13  C   UNL     1       6.909   3.068  -2.181  1.00  0.00    -0.022 C 
ATOM     14  C   UNL     1       8.147   1.050  -1.290  1.00  0.00     0.005 C 
ATOM     15  C   UNL     1       7.941  -0.308   3.694  1.00  0.00     0.029 A 
ATOM     16  C   UNL     1       8.623  -0.319   1.318  1.00  0.00     0.170 C 
ATOM     17  C   UNL     1       7.443   5.837  -1.184  1.00  0.00     0.076 C 
ATOM     18  C   UNL     1       7.199   4.219  -3.124  1.00  0.00     0.082 C 
ATOM     19  C   UNL     1       8.047   2.120  -2.341  1.00  0.00     0.008 C 
ATOM     20  C   UNL     1       7.929  -0.817   4.956  1.00  0.00     0.012 A 
ATOM     21  C   UNL     1       8.661  -0.939   2.668  1.00  0.00     0.029 A 
ATOM     22  C   UNL     1       8.045   5.255  -2.432  1.00  0.00     0.133 C 
ATOM     23  C   UNL     1       8.654  -1.988   5.207  1.00  0.00     0.001 A 
ATOM     24  C   UNL     1       9.381  -2.090   2.891  1.00  0.00     0.012 A 
ATOM     25  C   UNL     1       9.369  -2.616   4.189  1.00  0.00     0.001 A 
ATOM     26  O   UNL     1       6.877   1.727   4.284  1.00  0.00    -0.294 OA
ATOM     27  C   UNL     1       9.252   1.852   2.143  1.00  0.00     0.021 C 
ATOM     28  C   UNL     1       5.703   2.389  -2.834  1.00  0.00     0.012 C 
ATOM     29  O   UNL     1       8.904  -1.036   0.335  1.00  0.00    -0.294 OA
ATOM     30  O   UNL     1       9.135   5.593  -2.854  1.00  0.00    -0.300 OA
BRANCH   5  31
ATOM     31  O   UNL     1       7.094   3.475   2.124  1.00  0.00    -0.389 OA
ATOM     32  H   UNL     1       8.053   3.462   1.866  1.00  0.00     0.211 HD
ENDBRANCH   5  31
ENDBRANCH   1   5
TORSDOF 4
ENDMDL
MODEL 5
REMARK VINA RESULT:       7.6      1.298      1.566
REMARK SMILES CCCCC1(O)C2C3CCC(=O)CC3(C)CCC2C2(C)C(=O)c3ccccc3C(=O)C12
REMARK SMILES IDX 4 1 3 2 2 3 1 4 5 5 7 6 31 7 8 8 18 9 29 10 19 11 9 12 14 13
REMARK SMILES IDX 17 14 28 15 21 16 10 17 13 18 16 19 27 20 23 21 11 22 26 23
REMARK SMILES IDX 24 24 25 25 30 26 20 27 15 28 22 29 12 30 6 31
REMARK H PARENT 6 32
ROOT
ATOM      1  C   UNL     1       8.892   2.969   0.093  1.00  0.00     0.036 C 
ENDROOT
BRANCH   1   2
ATOM      2  C   UNL     1       8.541   4.149  -0.741  1.00  0.00     0.003 C 
BRANCH   2   3
ATOM      3  C   UNL     1       8.412   5.336   0.232  1.00  0.00    -0.003 C 
ATOM      4  C   UNL     1       9.740   5.664   0.855  1.00  0.00     0.004 C 
ENDBRANCH   2   3
ENDBRANCH   1   2
BRANCH   1   5
ATOM      5  C   UNL     1       7.749   2.053   0.445  1.00  0.00     0.079 C 
ATOM      6  C   UNL     1       6.576   2.868   0.863  1.00  0.00     0.029 C 
ATOM      7  C   UNL     1       7.957   1.319   1.713  1.00  0.00     0.107 C 
ATOM      8  C   UNL     1       5.825   3.618  -0.145  1.00  0.00     0.002 C 
ATOM      9  C   UNL     1       5.652   1.838   1.535  1.00  0.00     0.010 C 
ATOM     10  C   UNL     1       8.762   0.088   1.678  1.00  0.00     0.170 C 
ATOM     11  C   UNL     1       6.530   0.804   1.990  1.00  0.00     0.047 C 
ATOM     12  C   UNL     1       5.527   2.823  -1.362  1.00  0.00     0.012 C 
ATOM     13  C   UNL     1       4.701   4.286   0.556  1.00  0.00    -0.022 C 
ATOM     14  C   UNL     1       4.843   2.650   2.481  1.00  0.00     0.005 C 
ATOM     15  C   UNL     1       8.707  -0.759   2.897  1.00  0.00     0.029 A 
ATOM     16  C   UNL     1       6.585   0.406   3.395  1.00  0.00     0.170 C 
ATOM     17  C   UNL     1       4.501   3.389  -2.290  1.00  0.00     0.076 C 
ATOM     18  C   UNL     1       3.627   4.809  -0.377  1.00  0.00     0.082 C 
ATOM     19  C   UNL     1       3.980   3.523   1.613  1.00  0.00     0.008 C 
ATOM     20  C   UNL     1       9.689  -1.661   3.168  1.00  0.00     0.012 A 
ATOM     21  C   UNL     1       7.614  -0.600   3.762  1.00  0.00     0.029 A 
ATOM     22  C   UNL     1       3.326   3.789  -1.443  1.00  0.00     0.133 C 
ATOM     23  C   UNL     1       9.581  -2.431   4.333  1.00  0.00     0.001 A 
ATOM     24  C   UNL     1       7.487  -1.345   4.913  1.00  0.00     0.012 A 
ATOM     25  C   UNL     1       8.496  -2.274   5.193  1.00  0.00     0.001 A 
ATOM     26  O   UNL     1       9.470  -0.278   0.705  1.00  0.00    -0.294 OA
ATOM     27  C   UNL     1       6.312  -0.478   1.173  1.00  0.00     0.021 C 
ATOM     28  C   UNL     1       5.212   5.559   1.235  1.00  0.00     0.012 C 
ATOM     29  O   UNL     1       5.842   0.843   4.298  1.00  0.00    -0.294 OA
ATOM     30  O   UNL     1       2.212   3.326  -1.604  1.00  0.00    -0.300 OA
BRANCH   5  31
ATOM     31  O   UNL     1       7.488   1.184  -0.600  1.00  0.00    -0.389 OA
ATOM     32  H   UNL     1       7.493   0.236  -0.304  1.00  0.00     0.211 HD
ENDBRANCH   5  31
ENDBRANCH   1   5
TORSDOF 4
ENDMDL
MODEL 6
REMARK VINA RESULT:       8.2      2.363      3.526
REMARK SMILES CCCCC1(O)C2C3CCC(=O)CC3(C)CCC2C2(C)C(=O)c3ccccc3C(=O)C12
REMARK SMILES IDX 4 1 3 2 2 3 1 4 5 5 7 6 31 7 8 8 18 9 29 10 19 11 9 12 14 13
REMARK SMILES IDX 17 14 28 15 21 16 10 17 13 18 16 19 27 20 23 21 11 22 26 23
REMARK SMILES IDX 24 24 25 25 30 26 20 27 15 28 22 29 12 30 6 31
REMARK H PARENT 6 32
ROOT
ATOM      1  C   UNL     1       8.313   4.628   1.877  1.00  0.00     0.036 C 
ENDROOT
BRANCH   1   2
ATOM      2  C   UNL     1       9.516   4.880   2.714  1.00  0.00     0.003 C 
BRANCH   2   3
ATOM      3  C   UNL     1       9.032   5.706   3.920  1.00  0.00    -0.003 C 
ATOM      4  C   UNL     1       9.482   5.082   5.212  1.00  0.00     0.004 C 
ENDBRANCH   2   3
ENDBRANCH   1   2
BRANCH   1   5
ATOM      5  C   UNL     1       8.263   3.289   1.188  1.00  0.00     0.079 C 
ATOM      6  C   UNL     1       7.396   3.389  -0.018  1.00  0.00     0.029 C 
ATOM      7  C   UNL     1       7.475   2.279   1.930  1.00  0.00     0.107 C 
ATOM      8  C   UNL     1       7.881   4.112  -1.195  1.00  0.00     0.002 C 
ATOM      9  C   UNL     1       7.137   1.918  -0.387  1.00  0.00     0.010 C 
ATOM     10  C   UNL     1       8.138   1.547   3.021  1.00  0.00     0.170 C 
ATOM     11  C   UNL     1       7.284   1.202   0.843  1.00  0.00     0.047 C 
ATOM     12  C   UNL     1       9.279   3.768  -1.556  1.00  0.00     0.012 C 
ATOM     13  C   UNL     1       6.832   4.001  -2.237  1.00  0.00    -0.022 C 
ATOM     14  C   UNL     1       5.843   1.958  -1.118  1.00  0.00     0.005 C 
ATOM     15  C   UNL     1       7.412   0.361   3.541  1.00  0.00     0.029 A 
ATOM     16  C   UNL     1       6.210   0.371   1.381  1.00  0.00     0.170 C 
ATOM     17  C   UNL     1       9.739   4.202  -2.911  1.00  0.00     0.076 C 
ATOM     18  C   UNL     1       7.310   4.383  -3.624  1.00  0.00     0.082 C 
ATOM     19  C   UNL     1       6.136   2.693  -2.396  1.00  0.00     0.008 C 
ATOM     20  C   UNL     1       7.679  -0.137   4.779  1.00  0.00     0.012 A 
ATOM     21  C   UNL     1       6.442  -0.233   2.719  1.00  0.00     0.029 A 
ATOM     22  C   UNL     1       8.670   3.791  -3.884  1.00  0.00     0.133 C 
ATOM     23  C   UNL     1       6.961  -1.258   5.214  1.00  0.00     0.001 A 
ATOM     24  C   UNL     1       5.724  -1.335   3.125  1.00  0.00     0.012 A 
ATOM     25  C   UNL     1       5.998  -1.848   4.399  1.00  0.00     0.001 A 
ATOM     26  O   UNL     1       9.249   1.859   3.522  1.00  0.00    -0.294 OA
ATOM     27  C   UNL     1       8.546   0.327   0.802  1.00  0.00     0.021 C 
ATOM     28  C   UNL     1       5.732   5.029  -1.961  1.00  0.00     0.012 C 
ATOM     29  O   UNL     1       5.126   0.133   0.810  1.00  0.00    -0.294 OA
ATOM     30  O   UNL     1       8.885   3.035  -4.813  1.00  0.00    -0.300 OA
BRANCH   5  31
ATOM     31  O   UNL     1       9.544   2.833   0.927  1.00  0.00    -0.389 OA
ATOM     32  H   UNL     1       9.823   3.029  -0.005  1.00  0.00     0.211 HD
ENDBRANCH   5  31
ENDBRANCH   1   5
TORSDOF 4
ENDMDL
MODEL 7
REMARK VINA RESULT:       8.5      1.896      2.967
REMARK SMILES CCCCC1(O)C2C3CCC(=O)CC3(C)CCC2C2(C)C(=O)c3ccccc3C(=O)C12
REMARK SMILES IDX 4 1 3 2 2 3 1 4 5 5 7 6 31 7 8 8 18 9 29 10 19 11 9 12 14 13
REMARK SMILES IDX 17 14 28 15 21 16 10 17 13 18 16 19 27 20 23 21 11 22 26 23
REMARK SMILES IDX 24 24 25 25 30 26 20 27 15 28 22 29 12 30 6 31
REMARK H PARENT 6 32
ROOT
ATOM      1  C   UNL     1       6.833   3.425   3.297  1.00  0.00     0.036 C 
ENDROOT
BRANCH   1   2
ATOM      2  C   UNL     1       5.667   4.252   2.885  1.00  0.00     0.003 C 
BRANCH   2   3
ATOM      3  C   UNL     1       6.193   5.693   2.749  1.00  0.00    -0.003 C 
ATOM      4  C   UNL     1       7.318   5.761   1.755  1.00  0.00     0.004 C 
ENDBRANCH   2   3
ENDBRANCH   1   2
BRANCH   1   5
ATOM      5  C   UNL     1       7.268   2.371   2.312  1.00  0.00     0.079 C 
ATOM      6  C   UNL     1       6.159   2.105   1.355  1.00  0.00     0.029 C 
ATOM      7  C   UNL     1       7.361   1.019   2.906  1.00  0.00     0.107 C 
ATOM      8  C   UNL     1       5.837   3.101   0.332  1.00  0.00     0.002 C 
ATOM      9  C   UNL     1       6.586   0.791   0.679  1.00  0.00     0.010 C 
ATOM     10  C   UNL     1       8.591   0.663   3.631  1.00  0.00     0.170 C 
ATOM     11  C   UNL     1       7.431   0.146   1.636  1.00  0.00     0.047 C 
ATOM     12  C   UNL     1       7.036   3.636  -0.360  1.00  0.00     0.012 C 
ATOM     13  C   UNL     1       4.735   2.542  -0.490  1.00  0.00    -0.022 C 
ATOM     14  C   UNL     1       5.302   0.185   0.237  1.00  0.00     0.005 C 
ATOM     15  C   UNL     1       8.759  -0.776   3.958  1.00  0.00     0.029 A 
ATOM     16  C   UNL     1       7.143  -1.196   2.136  1.00  0.00     0.170 C 
ATOM     17  C   UNL     1       6.788   4.401  -1.621  1.00  0.00     0.076 C 
ATOM     18  C   UNL     1       4.519   3.277  -1.798  1.00  0.00     0.082 C 
ATOM     19  C   UNL     1       4.789   1.095  -0.844  1.00  0.00     0.008 C 
ATOM     20  C   UNL     1       9.594  -1.174   4.956  1.00  0.00     0.012 A 
ATOM     21  C   UNL     1       8.032  -1.712   3.209  1.00  0.00     0.029 A 
ATOM     22  C   UNL     1       5.844   3.575  -2.449  1.00  0.00     0.133 C 
ATOM     23  C   UNL     1       9.710  -2.545   5.218  1.00  0.00     0.001 A 
ATOM     24  C   UNL     1       8.130  -3.064   3.447  1.00  0.00     0.012 A 
ATOM     25  C   UNL     1       8.987  -3.476   4.474  1.00  0.00     0.001 A 
ATOM     26  O   UNL     1       9.481   1.482   3.978  1.00  0.00    -0.294 OA
ATOM     27  C   UNL     1       8.885   0.133   1.139  1.00  0.00     0.021 C 
ATOM     28  C   UNL     1       3.406   2.746   0.239  1.00  0.00     0.012 C 
ATOM     29  O   UNL     1       6.217  -1.932   1.736  1.00  0.00    -0.294 OA
ATOM     30  O   UNL     1       6.126   3.176  -3.564  1.00  0.00    -0.300 OA
BRANCH   5  31
ATOM     31  O   UNL     1       8.459   2.737   1.709  1.00  0.00    -0.389 OA
ATOM     32  H   UNL     1       9.244   2.347   2.173  1.00  0.00     0.211 HD
ENDBRANCH   5  31
ENDBRANCH   1   5
TORSDOF 4
ENDMDL
