MODEL 1
REMARK VINA RESULT:      -3.9      0.000      0.000
REMARK SMILES Cc1nc2ccccc2nc1CSc1nnc(-c2ccccn2)n1N
REMARK SMILES IDX 13 1 12 2 11 3 2 4 3 5 4 6 10 7 5 8 9 9 6 10 8 11 7 12 1 13
REMARK SMILES IDX 14 14 15 15 24 16 16 17 17 18 25 19 18 22 19 23 23 24 20 25
REMARK SMILES IDX 22 26 21 27
REMARK H PARENT 25 20 25 21
ROOT
ATOM      1  S   UNL     1       4.550   0.363   0.963  1.00  0.00    -0.078 SA
ENDROOT
BRANCH   1   2
ATOM      2  C   UNL     1       5.666  -0.228   2.256  1.00  0.00     0.136 C 
BRANCH   2   3
ATOM      3  C   UNL     1       6.732   0.797   2.544  1.00  0.00     0.073 A 
ATOM      4  C   UNL     1       8.037   0.378   2.351  1.00  0.00     0.060 A 
ATOM      5  N   UNL     1       9.005   1.278   2.601  1.00  0.00    -0.250 NA
ATOM      6  C   UNL     1       8.695   2.518   3.019  1.00  0.00     0.089 A 
ATOM      7  N   UNL     1       6.422   2.038   2.962  1.00  0.00    -0.248 NA
ATOM      8  C   UNL     1       9.740   3.385   3.255  1.00  0.00     0.030 A 
ATOM      9  C   UNL     1       7.399   2.939   3.213  1.00  0.00     0.089 A 
ATOM     10  C   UNL     1       9.508   4.687   3.688  1.00  0.00     0.002 A 
ATOM     11  C   UNL     1       7.152   4.220   3.640  1.00  0.00     0.030 A 
ATOM     12  C   UNL     1       8.197   5.110   3.882  1.00  0.00     0.002 A 
ATOM     13  C   UNL     1       8.379  -0.998   1.885  1.00  0.00     0.069 C 
ENDBRANCH   2   3
ENDBRANCH   1   2
BRANCH   1  14
ATOM     14  C   UNL     1       5.265   1.850   0.274  1.00  0.00     0.210 A 
ATOM     15  N   UNL     1       4.905   3.127   0.469  1.00  0.00    -0.121 NA
ATOM     16  N   UNL     1       6.329   1.805  -0.585  1.00  0.00    -0.216 N 
ATOM     17  N   UNL     1       5.727   3.890  -0.255  1.00  0.00    -0.126 NA
ATOM     18  C   UNL     1       6.608   3.092  -0.910  1.00  0.00     0.201 A 
BRANCH  16  19
ATOM     19  N   UNL     1       7.009   0.679  -1.052  1.00  0.00    -0.335 N 
ATOM     20  H   UNL     1       7.900   0.441  -0.559  1.00  0.00     0.178 HD
ATOM     21  H   UNL     1       6.677   0.085  -1.845  1.00  0.00     0.178 HD
ENDBRANCH  16  19
BRANCH  18  22
ATOM     22  C   UNL     1       7.683   3.499  -1.812  1.00  0.00     0.109 A 
ATOM     23  C   UNL     1       8.247   4.760  -1.646  1.00  0.00     0.032 A 
ATOM     24  N   UNL     1       8.153   2.716  -2.798  1.00  0.00    -0.253 NA
ATOM     25  C   UNL     1       9.264   5.209  -2.462  1.00  0.00     0.004 A 
ATOM     26  C   UNL     1       9.148   3.119  -3.620  1.00  0.00     0.112 A 
ATOM     27  C   UNL     1       9.740   4.378  -3.483  1.00  0.00     0.020 A 
ENDBRANCH  18  22
ENDBRANCH   1  14
TORSDOF 5
ENDMDL
MODEL 2
REMARK VINA RESULT:      -3.9      3.018      5.502
REMARK SMILES Cc1nc2ccccc2nc1CSc1nnc(-c2ccccn2)n1N
REMARK SMILES IDX 13 1 12 2 11 3 2 4 3 5 4 6 10 7 5 8 9 9 6 10 8 11 7 12 1 13
REMARK SMILES IDX 14 14 15 15 24 16 16 17 17 18 25 19 18 22 19 23 23 24 20 25
REMARK SMILES IDX 22 26 21 27
REMARK H PARENT 25 20 25 21
ROOT
ATOM      1  S   UNL     1       9.740  -0.108   2.756  1.00  0.00    -0.078 SA
ENDROOT
BRANCH   1   2
ATOM      2  C   UNL     1       8.521  -1.283   2.121  1.00  0.00     0.136 C 
BRANCH   2   3
ATOM      3  C   UNL     1       7.517  -0.583   1.245  1.00  0.00     0.073 A 
ATOM      4  C   UNL     1       7.995  -0.125   0.029  1.00  0.00     0.060 A 
ATOM      5  N   UNL     1       7.114   0.501  -0.771  1.00  0.00    -0.250 NA
ATOM      6  C   UNL     1       5.836   0.664  -0.386  1.00  0.00     0.089 A 
ATOM      7  N   UNL     1       6.238  -0.420   1.629  1.00  0.00    -0.248 NA
ATOM      8  C   UNL     1       4.991   1.316  -1.259  1.00  0.00     0.030 A 
ATOM      9  C   UNL     1       5.356   0.211   0.822  1.00  0.00     0.089 A 
ATOM     10  C   UNL     1       3.652   1.526  -0.941  1.00  0.00     0.002 A 
ATOM     11  C   UNL     1       4.038   0.410   1.152  1.00  0.00     0.030 A 
ATOM     12  C   UNL     1       3.170   1.066   0.281  1.00  0.00     0.002 A 
ATOM     13  C   UNL     1       9.413  -0.310  -0.398  1.00  0.00     0.069 C 
ENDBRANCH   2   3
ENDBRANCH   1   2
BRANCH   1  14
ATOM     14  C   UNL     1       9.092   1.537   2.483  1.00  0.00     0.210 A 
ATOM     15  N   UNL     1       9.559   2.504   1.679  1.00  0.00    -0.121 NA
ATOM     16  N   UNL     1       7.973   1.985   3.128  1.00  0.00    -0.216 N 
ATOM     17  N   UNL     1       8.749   3.557   1.807  1.00  0.00    -0.126 NA
ATOM     18  C   UNL     1       7.769   3.254   2.695  1.00  0.00     0.201 A 
BRANCH  16  19
ATOM     19  N   UNL     1       7.180   1.300   4.051  1.00  0.00    -0.335 N 
ATOM     20  H   UNL     1       6.211   1.061   3.738  1.00  0.00     0.178 HD
ATOM     21  H   UNL     1       7.504   1.024   5.006  1.00  0.00     0.178 HD
ENDBRANCH  16  19
BRANCH  18  22
ATOM     22  C   UNL     1       6.669   4.108   3.139  1.00  0.00     0.109 A 
ATOM     23  C   UNL     1       5.628   4.361   2.251  1.00  0.00     0.032 A 
ATOM     24  N   UNL     1       6.614   4.663   4.361  1.00  0.00    -0.253 NA
ATOM     25  C   UNL     1       4.558   5.159   2.603  1.00  0.00     0.004 A 
ATOM     26  C   UNL     1       5.583   5.451   4.744  1.00  0.00     0.112 A 
ATOM     27  C   UNL     1       4.519   5.728   3.881  1.00  0.00     0.020 A 
ENDBRANCH  18  22
ENDBRANCH   1  14
TORSDOF 5
ENDMDL
MODEL 3
REMARK VINA RESULT:      -3.9      2.234      6.223
REMARK SMILES Cc1nc2ccccc2nc1CSc1nnc(-c2ccccn2)n1N
REMARK SMILES IDX 13 1 12 2 11 3 2 4 3 5 4 6 10 7 5 8 9 9 6 10 8 11 7 12 1 13
REMARK SMILES IDX 14 14 15 15 24 16 16 17 17 18 25 19 18 22 19 23 23 24 20 25
REMARK SMILES IDX 22 26 21 27
REMARK H PARENT 25 20 25 21
ROOT
ATOM      1  S   UNL     1       8.268   4.778  -0.264  1.00  0.00    -0.078 SA
ENDROOT
BRANCH   1   2
ATOM      2  C   UNL     1       7.346   4.029  -1.626  1.00  0.00     0.136 C 
BRANCH   2   3
ATOM      3  C   UNL     1       6.271   3.116  -1.100  1.00  0.00     0.073 A 
ATOM      4  C   UNL     1       5.136   3.741  -0.613  1.00  0.00     0.060 A 
ATOM      5  N   UNL     1       4.162   2.944  -0.139  1.00  0.00    -0.250 NA
ATOM      6  C   UNL     1       4.307   1.607  -0.148  1.00  0.00     0.089 A 
ATOM      7  N   UNL     1       6.415   1.778  -1.108  1.00  0.00    -0.248 NA
ATOM      8  C   UNL     1       3.266   0.855   0.354  1.00  0.00     0.030 A 
ATOM      9  C   UNL     1       5.433   0.981  -0.630  1.00  0.00     0.089 A 
ATOM     10  C   UNL     1       3.333  -0.535   0.381  1.00  0.00     0.002 A 
ATOM     11  C   UNL     1       5.516  -0.389  -0.611  1.00  0.00     0.030 A 
ATOM     12  C   UNL     1       4.472  -1.165  -0.108  1.00  0.00     0.002 A 
ATOM     13  C   UNL     1       4.976   5.224  -0.607  1.00  0.00     0.069 C 
ENDBRANCH   2   3
ENDBRANCH   1   2
BRANCH   1  14
ATOM     14  C   UNL     1       8.053   3.731   1.170  1.00  0.00     0.210 A 
ATOM     15  N   UNL     1       7.355   3.968   2.290  1.00  0.00    -0.121 NA
ATOM     16  N   UNL     1       8.634   2.495   1.251  1.00  0.00    -0.216 N 
ATOM     17  N   UNL     1       7.486   2.900   3.079  1.00  0.00    -0.126 NA
ATOM     18  C   UNL     1       8.271   1.984   2.455  1.00  0.00     0.201 A 
BRANCH  16  19
ATOM     19  N   UNL     1       9.443   1.862   0.306  1.00  0.00    -0.335 N 
ATOM     20  H   UNL     1       8.976   1.586  -0.588  1.00  0.00     0.178 HD
ATOM     21  H   UNL     1      10.458   1.661   0.449  1.00  0.00     0.178 HD
ENDBRANCH  16  19
BRANCH  18  22
ATOM     22  C   UNL     1       8.680   0.672   2.948  1.00  0.00     0.109 A 
ATOM     23  C   UNL     1       8.369  -0.449   2.185  1.00  0.00     0.032 A 
ATOM     24  N   UNL     1       9.339   0.492   4.105  1.00  0.00    -0.253 NA
ATOM     25  C   UNL     1       8.724  -1.720   2.590  1.00  0.00     0.004 A 
ATOM     26  C   UNL     1       9.705  -0.736   4.538  1.00  0.00     0.112 A 
ATOM     27  C   UNL     1       9.411  -1.885   3.798  1.00  0.00     0.020 A 
ENDBRANCH  18  22
ENDBRANCH   1  14
TORSDOF 5
ENDMDL
MODEL 4
REMARK VINA RESULT:      -3.7      2.399      5.574
REMARK SMILES Cc1nc2ccccc2nc1CSc1nnc(-c2ccccn2)n1N
REMARK SMILES IDX 13 1 12 2 11 3 2 4 3 5 4 6 10 7 5 8 9 9 6 10 8 11 7 12 1 13
REMARK SMILES IDX 14 14 15 15 24 16 16 17 17 18 25 19 18 22 19 23 23 24 20 25
REMARK SMILES IDX 22 26 21 27
REMARK H PARENT 25 20 25 21
ROOT
ATOM      1  S   UNL     1       3.300   1.354  -0.336  1.00  0.00    -0.078 SA
ENDROOT
BRANCH   1   2
ATOM      2  C   UNL     1       4.193   2.245  -1.630  1.00  0.00     0.136 C 
BRANCH   2   3
ATOM      3  C   UNL     1       5.416   2.917  -1.064  1.00  0.00     0.073 A 
ATOM      4  C   UNL     1       5.390   4.301  -1.051  1.00  0.00     0.060 A 
ATOM      5  N   UNL     1       6.472   4.921  -0.548  1.00  0.00    -0.250 NA
ATOM      6  C   UNL     1       7.516   4.210  -0.086  1.00  0.00     0.089 A 
ATOM      7  N   UNL     1       6.460   2.206  -0.601  1.00  0.00    -0.248 NA
ATOM      8  C   UNL     1       8.589   4.916   0.415  1.00  0.00     0.030 A 
ATOM      9  C   UNL     1       7.546   2.834  -0.096  1.00  0.00     0.089 A 
ATOM     10  C   UNL     1       9.710   4.259   0.915  1.00  0.00     0.002 A 
ATOM     11  C   UNL     1       8.643   2.170   0.392  1.00  0.00     0.030 A 
ATOM     12  C   UNL     1       9.736   2.868   0.904  1.00  0.00     0.002 A 
ATOM     13  C   UNL     1       4.230   5.088  -1.562  1.00  0.00     0.069 C 
ENDBRANCH   2   3
ENDBRANCH   1   2
BRANCH   1  14
ATOM     14  C   UNL     1       4.460   0.244   0.450  1.00  0.00     0.210 A 
ATOM     15  N   UNL     1       4.753  -1.028   0.139  1.00  0.00    -0.121 NA
ATOM     16  N   UNL     1       5.207   0.631   1.528  1.00  0.00    -0.216 N 
ATOM     17  N   UNL     1       5.676  -1.450   1.006  1.00  0.00    -0.126 NA
ATOM     18  C   UNL     1       5.966  -0.442   1.868  1.00  0.00     0.201 A 
BRANCH  16  19
ATOM     19  N   UNL     1       5.211   1.869   2.172  1.00  0.00    -0.335 N 
ATOM     20  H   UNL     1       6.030   2.064   2.792  1.00  0.00     0.178 HD
ATOM     21  H   UNL     1       4.456   2.584   2.064  1.00  0.00     0.178 HD
ENDBRANCH  16  19
BRANCH  18  22
ATOM     22  C   UNL     1       6.917  -0.459   2.977  1.00  0.00     0.109 A 
ATOM     23  C   UNL     1       8.175  -1.013   2.762  1.00  0.00     0.032 A 
ATOM     24  N   UNL     1       6.636   0.031   4.196  1.00  0.00    -0.253 NA
ATOM     25  C   UNL     1       9.122  -1.063   3.765  1.00  0.00     0.004 A 
ATOM     26  C   UNL     1       7.536   0.001   5.205  1.00  0.00     0.112 A 
ATOM     27  C   UNL     1       8.810  -0.547   5.028  1.00  0.00     0.020 A 
ENDBRANCH  18  22
ENDBRANCH   1  14
TORSDOF 5
ENDMDL
MODEL 5
REMARK VINA RESULT:      -3.2      1.144      1.279
REMARK SMILES Cc1nc2ccccc2nc1CSc1nnc(-c2ccccn2)n1N
REMARK SMILES IDX 13 1 12 2 11 3 2 4 3 5 4 6 10 7 5 8 9 9 6 10 8 11 7 12 1 13
REMARK SMILES IDX 14 14 15 15 24 16 16 17 17 18 25 19 18 22 19 23 23 24 20 25
REMARK SMILES IDX 22 26 21 27
REMARK H PARENT 25 20 25 21
ROOT
ATOM      1  S   UNL     1       4.402  -0.348  -0.114  1.00  0.00    -0.078 SA
ENDROOT
BRANCH   1   2
ATOM      2  C   UNL     1       4.494  -0.219   1.686  1.00  0.00     0.136 C 
BRANCH   2   3
ATOM      3  C   UNL     1       5.501   0.824   2.093  1.00  0.00     0.073 A 
ATOM      4  C   UNL     1       6.728   0.342   2.515  1.00  0.00     0.060 A 
ATOM      5  N   UNL     1       7.643   1.257   2.881  1.00  0.00    -0.250 NA
ATOM      6  C   UNL     1       7.357   2.570   2.831  1.00  0.00     0.089 A 
ATOM      7  N   UNL     1       5.215   2.137   2.043  1.00  0.00    -0.248 NA
ATOM      8  C   UNL     1       8.345   3.448   3.222  1.00  0.00     0.030 A 
ATOM      9  C   UNL     1       6.138   3.053   2.412  1.00  0.00     0.089 A 
ATOM     10  C   UNL     1       8.133   4.824   3.199  1.00  0.00     0.002 A 
ATOM     11  C   UNL     1       5.912   4.407   2.384  1.00  0.00     0.030 A 
ATOM     12  C   UNL     1       6.901   5.309   2.774  1.00  0.00     0.002 A 
ATOM     13  C   UNL     1       7.045  -1.115   2.567  1.00  0.00     0.069 C 
ENDBRANCH   2   3
ENDBRANCH   1   2
BRANCH   1  14
ATOM     14  C   UNL     1       4.903   1.230  -0.791  1.00  0.00     0.210 A 
ATOM     15  N   UNL     1       4.139   2.265  -1.170  1.00  0.00    -0.121 NA
ATOM     16  N   UNL     1       6.219   1.537  -0.999  1.00  0.00    -0.216 N 
ATOM     17  N   UNL     1       4.954   3.223  -1.615  1.00  0.00    -0.126 NA
ATOM     18  C   UNL     1       6.238   2.791  -1.517  1.00  0.00     0.201 A 
BRANCH  16  19
ATOM     19  N   UNL     1       7.338   0.743  -0.742  1.00  0.00    -0.335 N 
ATOM     20  H   UNL     1       7.920   0.485  -1.572  1.00  0.00     0.178 HD
ATOM     21  H   UNL     1       7.610   0.410   0.210  1.00  0.00     0.178 HD
ENDBRANCH  16  19
BRANCH  18  22
ATOM     22  C   UNL     1       7.454   3.510  -1.889  1.00  0.00     0.109 A 
ATOM     23  C   UNL     1       7.635   4.801  -1.402  1.00  0.00     0.032 A 
ATOM     24  N   UNL     1       8.407   2.987  -2.680  1.00  0.00    -0.253 NA
ATOM     25  C   UNL     1       8.760   5.538  -1.713  1.00  0.00     0.004 A 
ATOM     26  C   UNL     1       9.523   3.676  -3.008  1.00  0.00     0.112 A 
ATOM     27  C   UNL     1       9.740   4.975  -2.538  1.00  0.00     0.020 A 
ENDBRANCH  18  22
ENDBRANCH   1  14
TORSDOF 5
ENDMDL
MODEL 6
REMARK VINA RESULT:      -3.1      0.738      1.044
REMARK SMILES Cc1nc2ccccc2nc1CSc1nnc(-c2ccccn2)n1N
REMARK SMILES IDX 13 1 12 2 11 3 2 4 3 5 4 6 10 7 5 8 9 9 6 10 8 11 7 12 1 13
REMARK SMILES IDX 14 14 15 15 24 16 16 17 17 18 25 19 18 22 19 23 23 24 20 25
REMARK SMILES IDX 22 26 21 27
REMARK H PARENT 25 20 25 21
ROOT
ATOM      1  S   UNL     1       4.876  -0.218   0.733  1.00  0.00    -0.078 SA
ENDROOT
BRANCH   1   2
ATOM      2  C   UNL     1       5.778  -0.639   2.241  1.00  0.00     0.136 C 
BRANCH   2   3
ATOM      3  C   UNL     1       6.810   0.412   2.552  1.00  0.00     0.073 A 
ATOM      4  C   UNL     1       8.128  -0.009   2.513  1.00  0.00     0.060 A 
ATOM      5  N   UNL     1       9.067   0.914   2.787  1.00  0.00    -0.250 NA
ATOM      6  C   UNL     1       8.718   2.179   3.081  1.00  0.00     0.089 A 
ATOM      7  N   UNL     1       6.461   1.677   2.847  1.00  0.00    -0.248 NA
ATOM      8  C   UNL     1       9.735   3.069   3.350  1.00  0.00     0.030 A 
ATOM      9  C   UNL     1       7.409   2.602   3.122  1.00  0.00     0.089 A 
ATOM     10  C   UNL     1       9.462   4.398   3.663  1.00  0.00     0.002 A 
ATOM     11  C   UNL     1       7.121   3.909   3.428  1.00  0.00     0.030 A 
ATOM     12  C   UNL     1       8.138   4.823   3.702  1.00  0.00     0.002 A 
ATOM     13  C   UNL     1       8.514  -1.412   2.184  1.00  0.00     0.069 C 
ENDBRANCH   2   3
ENDBRANCH   1   2
BRANCH   1  14
ATOM     14  C   UNL     1       5.376   1.430   0.251  1.00  0.00     0.210 A 
ATOM     15  N   UNL     1       4.785   2.603   0.521  1.00  0.00    -0.121 NA
ATOM     16  N   UNL     1       6.498   1.650  -0.500  1.00  0.00    -0.216 N 
ATOM     17  N   UNL     1       5.518   3.562  -0.049  1.00  0.00    -0.126 NA
ATOM     18  C   UNL     1       6.576   2.992  -0.682  1.00  0.00     0.201 A 
BRANCH  16  19
ATOM     19  N   UNL     1       7.399   0.705  -0.996  1.00  0.00    -0.335 N 
ATOM     20  H   UNL     1       8.364   0.734  -0.594  1.00  0.00     0.178 HD
ATOM     21  H   UNL     1       7.158  -0.004  -1.724  1.00  0.00     0.178 HD
ENDBRANCH  16  19
BRANCH  18  22
ATOM     22  C   UNL     1       7.633   3.661  -1.436  1.00  0.00     0.109 A 
ATOM     23  C   UNL     1       8.072   3.077  -2.621  1.00  0.00     0.032 A 
ATOM     24  N   UNL     1       8.205   4.811  -1.041  1.00  0.00    -0.253 NA
ATOM     25  C   UNL     1       9.068   3.654  -3.383  1.00  0.00     0.004 A 
ATOM     26  C   UNL     1       9.184   5.407  -1.760  1.00  0.00     0.112 A 
ATOM     27  C   UNL     1       9.651   4.852  -2.954  1.00  0.00     0.020 A 
ENDBRANCH  18  22
ENDBRANCH   1  14
TORSDOF 5
ENDMDL
MODEL 7
REMARK VINA RESULT:      -3.0      2.508      5.446
REMARK SMILES Cc1nc2ccccc2nc1CSc1nnc(-c2ccccn2)n1N
REMARK SMILES IDX 13 1 12 2 11 3 2 4 3 5 4 6 10 7 5 8 9 9 6 10 8 11 7 12 1 13
REMARK SMILES IDX 14 14 15 15 24 16 16 17 17 18 25 19 18 22 19 23 23 24 20 25
REMARK SMILES IDX 22 26 21 27
REMARK H PARENT 25 20 25 21
ROOT
ATOM      1  S   UNL     1       4.013   0.531  -1.538  1.00  0.00    -0.078 SA
ENDROOT
BRANCH   1   2
ATOM      2  C   UNL     1       3.686   2.309  -1.568  1.00  0.00     0.136 C 
BRANCH   2   3
ATOM      3  C   UNL     1       4.936   3.083  -1.245  1.00  0.00     0.073 A 
ATOM      4  C   UNL     1       4.798   4.460  -1.209  1.00  0.00     0.060 A 
ATOM      5  N   UNL     1       5.903   5.171  -0.921  1.00  0.00    -0.250 NA
ATOM      6  C   UNL     1       7.073   4.553  -0.685  1.00  0.00     0.089 A 
ATOM      7  N   UNL     1       6.108   2.465  -1.009  1.00  0.00    -0.248 NA
ATOM      8  C   UNL     1       8.162   5.347  -0.396  1.00  0.00     0.030 A 
ATOM      9  C   UNL     1       7.215   3.184  -0.720  1.00  0.00     0.089 A 
ATOM     10  C   UNL     1       9.411   4.789  -0.138  1.00  0.00     0.002 A 
ATOM     11  C   UNL     1       8.439   2.616  -0.468  1.00  0.00     0.030 A 
ATOM     12  C   UNL     1       9.550   3.405  -0.174  1.00  0.00     0.002 A 
ATOM     13  C   UNL     1       3.499   5.145  -1.468  1.00  0.00     0.069 C 
ENDBRANCH   2   3
ENDBRANCH   1   2
BRANCH   1  14
ATOM     14  C   UNL     1       4.633   0.127   0.090  1.00  0.00     0.210 A 
ATOM     15  N   UNL     1       3.968   0.060   1.253  1.00  0.00    -0.121 NA
ATOM     16  N   UNL     1       5.951  -0.170   0.304  1.00  0.00    -0.216 N 
ATOM     17  N   UNL     1       4.847  -0.276   2.199  1.00  0.00    -0.126 NA
ATOM     18  C   UNL     1       6.072  -0.421   1.632  1.00  0.00     0.201 A 
BRANCH  16  19
ATOM     19  N   UNL     1       6.985  -0.214  -0.632  1.00  0.00    -0.335 N 
ATOM     20  H   UNL     1       7.636  -1.029  -0.562  1.00  0.00     0.178 HD
ATOM     21  H   UNL     1       7.130   0.508  -1.374  1.00  0.00     0.178 HD
ENDBRANCH  16  19
BRANCH  18  22
ATOM     22  C   UNL     1       7.325  -0.781   2.291  1.00  0.00     0.109 A 
ATOM     23  C   UNL     1       8.001   0.201   3.009  1.00  0.00     0.032 A 
ATOM     24  N   UNL     1       7.859  -2.012   2.236  1.00  0.00    -0.253 NA
ATOM     25  C   UNL     1       9.190  -0.068   3.655  1.00  0.00     0.004 A 
ATOM     26  C   UNL     1       9.022  -2.317   2.856  1.00  0.00     0.112 A 
ATOM     27  C   UNL     1       9.730  -1.358   3.586  1.00  0.00     0.020 A 
ENDBRANCH  18  22
ENDBRANCH   1  14
TORSDOF 5
ENDMDL
MODEL 8
REMARK VINA RESULT:      -2.8      2.563      5.075
REMARK SMILES Cc1nc2ccccc2nc1CSc1nnc(-c2ccccn2)n1N
REMARK SMILES IDX 13 1 12 2 11 3 2 4 3 5 4 6 10 7 5 8 9 9 6 10 8 11 7 12 1 13
REMARK SMILES IDX 14 14 15 15 24 16 16 17 17 18 25 19 18 22 19 23 23 24 20 25
REMARK SMILES IDX 22 26 21 27
REMARK H PARENT 25 20 25 21
ROOT
ATOM      1  S   UNL     1       3.652   1.610  -1.410  1.00  0.00    -0.078 SA
ENDROOT
BRANCH   1   2
ATOM      2  C   UNL     1       4.594   3.108  -1.779  1.00  0.00     0.136 C 
BRANCH   2   3
ATOM      3  C   UNL     1       4.987   3.813  -0.508  1.00  0.00     0.073 A 
ATOM      4  C   UNL     1       4.224   4.919  -0.173  1.00  0.00     0.060 A 
ATOM      5  N   UNL     1       4.556   5.563   0.960  1.00  0.00    -0.250 NA
ATOM      6  C   UNL     1       5.585   5.136   1.714  1.00  0.00     0.089 A 
ATOM      7  N   UNL     1       6.016   3.386   0.247  1.00  0.00    -0.248 NA
ATOM      8  C   UNL     1       5.866   5.847   2.860  1.00  0.00     0.030 A 
ATOM      9  C   UNL     1       6.347   4.038   1.384  1.00  0.00     0.089 A 
ATOM     10  C   UNL     1       6.913   5.472   3.698  1.00  0.00     0.002 A 
ATOM     11  C   UNL     1       7.383   3.654   2.199  1.00  0.00     0.030 A 
ATOM     12  C   UNL     1       7.680   4.361   3.363  1.00  0.00     0.002 A 
ATOM     13  C   UNL     1       3.081   5.389  -1.009  1.00  0.00     0.069 C 
ENDBRANCH   2   3
ENDBRANCH   1   2
BRANCH   1  14
ATOM     14  C   UNL     1       4.340   0.897   0.079  1.00  0.00     0.210 A 
ATOM     15  N   UNL     1       3.728   0.615   1.239  1.00  0.00    -0.121 NA
ATOM     16  N   UNL     1       5.660   0.553   0.168  1.00  0.00    -0.216 N 
ATOM     17  N   UNL     1       4.643   0.098   2.060  1.00  0.00    -0.126 NA
ATOM     18  C   UNL     1       5.838   0.053   1.417  1.00  0.00     0.201 A 
BRANCH  16  19
ATOM     19  N   UNL     1       6.649   0.680  -0.809  1.00  0.00    -0.335 N 
ATOM     20  H   UNL     1       7.023   1.644  -0.963  1.00  0.00     0.178 HD
ATOM     21  H   UNL     1       7.019  -0.119  -1.371  1.00  0.00     0.178 HD
ENDBRANCH  16  19
BRANCH  18  22
ATOM     22  C   UNL     1       7.114  -0.437   1.933  1.00  0.00     0.109 A 
ATOM     23  C   UNL     1       7.298  -0.480   3.312  1.00  0.00     0.032 A 
ATOM     24  N   UNL     1       8.121  -0.846   1.143  1.00  0.00    -0.253 NA
ATOM     25  C   UNL     1       8.477  -0.931   3.869  1.00  0.00     0.004 A 
ATOM     26  C   UNL     1       9.292  -1.294   1.649  1.00  0.00     0.112 A 
ATOM     27  C   UNL     1       9.514  -1.352   3.028  1.00  0.00     0.020 A 
ENDBRANCH  18  22
ENDBRANCH   1  14
TORSDOF 5
ENDMDL
MODEL 9
REMARK VINA RESULT:      -2.8      2.193      5.234
REMARK SMILES Cc1nc2ccccc2nc1CSc1nnc(-c2ccccn2)n1N
REMARK SMILES IDX 13 1 12 2 11 3 2 4 3 5 4 6 10 7 5 8 9 9 6 10 8 11 7 12 1 13
REMARK SMILES IDX 14 14 15 15 24 16 16 17 17 18 25 19 18 22 19 23 23 24 20 25
REMARK SMILES IDX 22 26 21 27
REMARK H PARENT 25 20 25 21
ROOT
ATOM      1  S   UNL     1       3.737   1.605  -1.313  1.00  0.00    -0.078 SA
ENDROOT
BRANCH   1   2
ATOM      2  C   UNL     1       4.252   3.098  -2.192  1.00  0.00     0.136 C 
BRANCH   2   3
ATOM      3  C   UNL     1       5.370   3.787  -1.456  1.00  0.00     0.073 A 
ATOM      4  C   UNL     1       5.110   5.084  -1.045  1.00  0.00     0.060 A 
ATOM      5  N   UNL     1       6.096   5.718  -0.384  1.00  0.00    -0.250 NA
ATOM      6  C   UNL     1       7.267   5.102  -0.147  1.00  0.00     0.089 A 
ATOM      7  N   UNL     1       6.542   3.172  -1.218  1.00  0.00    -0.248 NA
ATOM      8  C   UNL     1       8.229   5.814   0.536  1.00  0.00     0.030 A 
ATOM      9  C   UNL     1       7.530   3.813  -0.554  1.00  0.00     0.089 A 
ATOM     10  C   UNL     1       9.469   5.252   0.825  1.00  0.00     0.002 A 
ATOM     11  C   UNL     1       8.748   3.243  -0.277  1.00  0.00     0.030 A 
ATOM     12  C   UNL     1       9.731   3.950   0.414  1.00  0.00     0.002 A 
ATOM     13  C   UNL     1       3.809   5.764  -1.307  1.00  0.00     0.069 C 
ENDBRANCH   2   3
ENDBRANCH   1   2
BRANCH   1  14
ATOM     14  C   UNL     1       4.589   1.587   0.259  1.00  0.00     0.210 A 
ATOM     15  N   UNL     1       4.377   2.350   1.341  1.00  0.00    -0.121 NA
ATOM     16  N   UNL     1       5.619   0.722   0.509  1.00  0.00    -0.216 N 
ATOM     17  N   UNL     1       5.257   1.979   2.273  1.00  0.00    -0.126 NA
ATOM     18  C   UNL     1       6.030   0.978   1.777  1.00  0.00     0.201 A 
BRANCH  16  19
ATOM     19  N   UNL     1       6.160  -0.240  -0.345  1.00  0.00    -0.335 N 
ATOM     20  H   UNL     1       5.502  -0.980  -0.682  1.00  0.00     0.178 HD
ATOM     21  H   UNL     1       7.159  -0.250  -0.653  1.00  0.00     0.178 HD
ENDBRANCH  16  19
BRANCH  18  22
ATOM     22  C   UNL     1       7.119   0.272   2.447  1.00  0.00     0.109 A 
ATOM     23  C   UNL     1       7.844   0.949   3.423  1.00  0.00     0.032 A 
ATOM     24  N   UNL     1       7.457  -0.997   2.167  1.00  0.00    -0.253 NA
ATOM     25  C   UNL     1       8.886   0.344   4.097  1.00  0.00     0.004 A 
ATOM     26  C   UNL     1       8.471  -1.626   2.804  1.00  0.00     0.112 A 
ATOM     27  C   UNL     1       9.223  -0.979   3.790  1.00  0.00     0.020 A 
ENDBRANCH  18  22
ENDBRANCH   1  14
TORSDOF 5
ENDMDL
