MODEL 1
REMARK VINA RESULT:       0.6      0.000      0.000
REMARK SMILES CC(C)(C)c1cccc(-c2cc(=NC(O)c3c[nH]c(O)c3)[nH]n2-c2ccccc2)c1
REMARK SMILES IDX 13 1 12 2 10 3 11 4 23 5 22 6 9 8 5 9 6 10 30 11 7 12 8 13
REMARK SMILES IDX 2 14 1 15 3 16 4 17 24 18 25 19 29 20 26 21 28 22 27 23
REMARK SMILES IDX 14 24 15 25 16 27 17 28 21 29 18 30 19 31 20 33
REMARK H PARENT 22 7 15 26 18 32 20 34
ROOT
ATOM      1  N   UNL     1       8.442   5.409   2.789  1.00  0.00    -0.231 NA
ENDROOT
BRANCH   1   2
ATOM      2  C   UNL     1       8.389   4.781   1.673  1.00  0.00     0.145 A 
ATOM      3  C   UNL     1       7.945   3.200   0.178  1.00  0.00     0.074 A 
ATOM      4  C   UNL     1       7.800   3.531   1.509  1.00  0.00     0.077 A 
ATOM      5  N   UNL     1       8.597   4.222  -0.413  1.00  0.00    -0.254 N 
ATOM      6  N   UNL     1       8.863   5.172   0.486  1.00  0.00    -0.277 N 
ATOM      7  H   UNL     1       9.360   6.070   0.291  1.00  0.00     0.190 HD
BRANCH   3   8
ATOM      8  C   UNL     1       7.490   1.983  -0.487  1.00  0.00     0.001 A 
ATOM      9  C   UNL     1       5.882   0.176  -0.513  1.00  0.00    -0.042 A 
ATOM     10  C   UNL     1       6.520  -0.321  -1.635  1.00  0.00     0.004 A 
ATOM     11  C   UNL     1       6.384   1.330   0.045  1.00  0.00     0.014 A 
ATOM     12  C   UNL     1       7.626   0.315  -2.183  1.00  0.00     0.001 A 
ATOM     13  C   UNL     1       8.115   1.471  -1.611  1.00  0.00     0.010 A 
BRANCH   9  14
ATOM     14  C   UNL     1       4.703  -0.529   0.047  1.00  0.00    -0.013 C 
ATOM     15  C   UNL     1       3.484   0.319  -0.252  1.00  0.00     0.016 C 
ATOM     16  C   UNL     1       4.827  -0.630   1.549  1.00  0.00     0.016 C 
ATOM     17  C   UNL     1       4.561  -1.920  -0.536  1.00  0.00     0.016 C 
ENDBRANCH   9  14
ENDBRANCH   3   8
BRANCH   5  18
ATOM     18  C   UNL     1       8.982   4.347  -1.793  1.00  0.00     0.063 A 
ATOM     19  C   UNL     1       9.283   5.642  -2.219  1.00  0.00     0.028 A 
ATOM     20  C   UNL     1       9.050   3.261  -2.639  1.00  0.00     0.028 A 
ATOM     21  C   UNL     1       9.658   5.831  -3.529  1.00  0.00     0.002 A 
ATOM     22  C   UNL     1       9.431   3.491  -3.942  1.00  0.00     0.002 A 
ATOM     23  C   UNL     1       9.739   4.773  -4.406  1.00  0.00     0.000 A 
ENDBRANCH   5  18
ENDBRANCH   1   2
BRANCH   1  24
ATOM     24  C   UNL     1       7.888   4.981   4.037  1.00  0.00     0.267 C 
BRANCH  24  25
ATOM     25  O   UNL     1       8.268   5.773   5.106  1.00  0.00    -0.368 OA
ATOM     26  H   UNL     1       7.553   6.368   5.402  1.00  0.00     0.213 HD
ENDBRANCH  24  25
BRANCH  24  27
ATOM     27  C   UNL     1       8.384   3.603   4.314  1.00  0.00     0.024 A 
ATOM     28  C   UNL     1       9.710   3.218   4.446  1.00  0.00     0.094 A 
ATOM     29  C   UNL     1       7.580   2.473   4.485  1.00  0.00     0.076 A 
ATOM     30  N   UNL     1       9.721   1.898   4.691  1.00  0.00    -0.333 N 
ATOM     31  C   UNL     1       8.449   1.427   4.719  1.00  0.00     0.188 A 
ATOM     32  H   UNL     1      10.582   1.313   4.839  1.00  0.00     0.169 HD
BRANCH  31  33
ATOM     33  O   UNL     1       8.009   0.128   4.938  1.00  0.00    -0.495 OA
ATOM     34  H   UNL     1       7.085  -0.124   4.557  1.00  0.00     0.295 HD
ENDBRANCH  31  33
ENDBRANCH  24  27
ENDBRANCH   1  24
TORSDOF 8
ENDMDL
MODEL 2
REMARK VINA RESULT:       2.4      3.144      5.908
REMARK SMILES CC(C)(C)c1cccc(-c2cc(=NC(O)c3c[nH]c(O)c3)[nH]n2-c2ccccc2)c1
REMARK SMILES IDX 13 1 12 2 10 3 11 4 23 5 22 6 9 8 5 9 6 10 30 11 7 12 8 13
REMARK SMILES IDX 2 14 1 15 3 16 4 17 24 18 25 19 29 20 26 21 28 22 27 23
REMARK SMILES IDX 14 24 15 25 16 27 17 28 21 29 18 30 19 31 20 33
REMARK H PARENT 22 7 15 26 18 32 20 34
ROOT
ATOM      1  N   UNL     1       5.847  -1.010  -0.966  1.00  0.00    -0.231 NA
ENDROOT
BRANCH   1   2
ATOM      2  C   UNL     1       5.831   0.253  -0.747  1.00  0.00     0.145 A 
ATOM      3  C   UNL     1       6.387   2.247   0.057  1.00  0.00     0.074 A 
ATOM      4  C   UNL     1       6.731   0.912   0.085  1.00  0.00     0.077 A 
ATOM      5  N   UNL     1       5.323   2.362  -0.763  1.00  0.00    -0.254 N 
ATOM      6  N   UNL     1       4.989   1.164  -1.246  1.00  0.00    -0.277 N 
ATOM      7  H   UNL     1       4.201   0.973  -1.904  1.00  0.00     0.190 HD
BRANCH   3   8
ATOM      8  C   UNL     1       7.035   3.343   0.770  1.00  0.00     0.001 A 
ATOM      9  C   UNL     1       8.080   4.080   2.823  1.00  0.00    -0.042 A 
ATOM     10  C   UNL     1       8.272   5.317   2.233  1.00  0.00     0.004 A 
ATOM     11  C   UNL     1       7.460   3.108   2.073  1.00  0.00     0.014 A 
ATOM     12  C   UNL     1       7.856   5.575   0.934  1.00  0.00     0.001 A 
ATOM     13  C   UNL     1       7.235   4.588   0.196  1.00  0.00     0.010 A 
BRANCH   9  14
ATOM     14  C   UNL     1       8.537   3.840   4.213  1.00  0.00    -0.013 C 
ATOM     15  C   UNL     1       9.735   4.735   4.457  1.00  0.00     0.016 C 
ATOM     16  C   UNL     1       9.002   2.411   4.364  1.00  0.00     0.016 C 
ATOM     17  C   UNL     1       7.434   4.114   5.214  1.00  0.00     0.016 C 
ENDBRANCH   9  14
ENDBRANCH   3   8
BRANCH   5  18
ATOM     18  C   UNL     1       4.601   3.555  -1.116  1.00  0.00     0.063 A 
ATOM     19  C   UNL     1       4.503   3.817  -2.483  1.00  0.00     0.028 A 
ATOM     20  C   UNL     1       4.044   4.385  -0.166  1.00  0.00     0.028 A 
ATOM     21  C   UNL     1       3.826   4.944  -2.888  1.00  0.00     0.002 A 
ATOM     22  C   UNL     1       3.373   5.503  -0.612  1.00  0.00     0.002 A 
ATOM     23  C   UNL     1       3.254   5.799  -1.972  1.00  0.00     0.000 A 
ENDBRANCH   5  18
ENDBRANCH   1   2
BRANCH   1  24
ATOM     24  C   UNL     1       6.233  -2.032  -0.042  1.00  0.00     0.267 C 
BRANCH  24  25
ATOM     25  O   UNL     1       5.189  -2.863   0.324  1.00  0.00    -0.368 OA
ATOM     26  H   UNL     1       4.790  -2.608   1.177  1.00  0.00     0.213 HD
ENDBRANCH  24  25
BRANCH  24  27
ATOM     27  C   UNL     1       6.723  -1.370   1.200  1.00  0.00     0.024 A 
ATOM     28  C   UNL     1       8.019  -1.406   1.693  1.00  0.00     0.094 A 
ATOM     29  C   UNL     1       5.944  -0.604   2.071  1.00  0.00     0.076 A 
ATOM     30  N   UNL     1       8.036  -0.686   2.826  1.00  0.00    -0.333 N 
ATOM     31  C   UNL     1       6.797  -0.193   3.074  1.00  0.00     0.188 A 
ATOM     32  H   UNL     1       8.879  -0.526   3.434  1.00  0.00     0.169 HD
BRANCH  31  33
ATOM     33  O   UNL     1       6.374   0.599   4.134  1.00  0.00    -0.495 OA
ATOM     34  H   UNL     1       5.399   0.933   4.109  1.00  0.00     0.295 HD
ENDBRANCH  31  33
ENDBRANCH  24  27
ENDBRANCH   1  24
TORSDOF 8
ENDMDL
