MODEL 1
REMARK VINA RESULT:      -2.5      0.000      0.000
REMARK SMILES COc1ccc(C(=O)C=Cc2ccc(OCCCCBr)cc2)c(OC)c1
REMARK SMILES IDX 11 1 12 2 13 3 14 4 21 5 22 6 10 7 9 8 7 9 8 10 6 11 3 12
REMARK SMILES IDX 4 13 26 14 5 15 23 16 2 17 1 18 24 19 25 20 15 21 16 22
REMARK SMILES IDX 17 23 18 24 19 25 20 26
REMARK H PARENT
ROOT
ATOM      1  C   UNL     1       9.230   1.443   2.423  1.00  0.00    -0.025 A 
ATOM      2  C   UNL     1       9.441   2.398   1.451  1.00  0.00     0.012 A 
ATOM      3  C   UNL     1       9.034   3.717   1.591  1.00  0.00     0.047 A 
ATOM      4  C   UNL     1       8.388   4.126   2.740  1.00  0.00     0.119 A 
ATOM      5  C   UNL     1       8.164   3.191   3.731  1.00  0.00     0.047 A 
ATOM      6  C   UNL     1       8.577   1.886   3.572  1.00  0.00     0.012 A 
ENDROOT
BRANCH   1   7
ATOM      7  C   UNL     1       9.648   0.055   2.298  1.00  0.00     0.012 C 
BRANCH   7   8
ATOM      8  C   UNL     1       9.740  -0.591   1.149  1.00  0.00     0.053 C 
BRANCH   8   9
ATOM      9  C   UNL     1       8.982  -0.067   0.024  1.00  0.00     0.189 C 
ATOM     10  O   UNL     1       9.664   0.174  -1.021  1.00  0.00    -0.289 OA
BRANCH   9  11
ATOM     11  C   UNL     1       7.579   0.196  -0.018  1.00  0.00     0.064 A 
ATOM     12  C   UNL     1       4.776   0.596   0.032  1.00  0.00     0.122 A 
ATOM     13  C   UNL     1       5.378  -0.297   0.880  1.00  0.00     0.047 A 
ATOM     14  C   UNL     1       5.573   1.289  -0.842  1.00  0.00     0.093 A 
ATOM     15  C   UNL     1       6.728  -0.492   0.860  1.00  0.00     0.020 A 
ATOM     16  C   UNL     1       6.942   1.085  -0.857  1.00  0.00     0.133 A 
BRANCH  12  17
ATOM     17  O   UNL     1       3.411   0.836   0.007  1.00  0.00    -0.497 OA
ATOM     18  C   UNL     1       2.596   0.607   1.139  1.00  0.00     0.278 C 
ENDBRANCH  12  17
BRANCH  16  19
ATOM     19  O   UNL     1       7.677   1.817  -1.762  1.00  0.00    -0.496 OA
ATOM     20  C   UNL     1       7.772   3.209  -1.827  1.00  0.00     0.278 C 
ENDBRANCH  16  19
ENDBRANCH   9  11
ENDBRANCH   8   9
ENDBRANCH   7   8
ENDBRANCH   1   7
BRANCH   4  21
ATOM     21  O   UNL     1       7.954   5.430   2.947  1.00  0.00    -0.494 OA
BRANCH  21  22
ATOM     22  C   UNL     1       6.583   5.780   2.955  1.00  0.00     0.229 C 
BRANCH  22  23
ATOM     23  C   UNL     1       5.737   4.543   2.818  1.00  0.00     0.042 C 
BRANCH  23  24
ATOM     24  C   UNL     1       4.602   4.856   1.870  1.00  0.00     0.015 C 
BRANCH  24  25
ATOM     25  C   UNL     1       4.964   4.434   0.460  1.00  0.00     0.081 C 
ATOM     26  Br  UNL     1       5.983   5.845  -0.396  1.00  0.00    -0.093 Br
ENDBRANCH  24  25
ENDBRANCH  23  24
ENDBRANCH  22  23
ENDBRANCH  21  22
ENDBRANCH   4  21
TORSDOF 11
ENDMDL
MODEL 2
REMARK VINA RESULT:      -2.4      1.985      4.859
REMARK SMILES COc1ccc(C(=O)C=Cc2ccc(OCCCCBr)cc2)c(OC)c1
REMARK SMILES IDX 11 1 12 2 13 3 14 4 21 5 22 6 10 7 9 8 7 9 8 10 6 11 3 12
REMARK SMILES IDX 4 13 26 14 5 15 23 16 2 17 1 18 24 19 25 20 15 21 16 22
REMARK SMILES IDX 17 23 18 24 19 25 20 26
REMARK H PARENT
ROOT
ATOM      1  C   UNL     1       5.925  -0.941   1.141  1.00  0.00    -0.025 A 
ATOM      2  C   UNL     1       5.430   0.123   1.865  1.00  0.00     0.012 A 
ATOM      3  C   UNL     1       4.701   1.152   1.286  1.00  0.00     0.047 A 
ATOM      4  C   UNL     1       4.440   1.142  -0.069  1.00  0.00     0.119 A 
ATOM      5  C   UNL     1       4.922   0.088  -0.819  1.00  0.00     0.047 A 
ATOM      6  C   UNL     1       5.645  -0.924  -0.225  1.00  0.00     0.012 A 
ENDROOT
BRANCH   1   7
ATOM      7  C   UNL     1       6.691  -2.030   1.726  1.00  0.00     0.012 C 
BRANCH   7   8
ATOM      8  C   UNL     1       7.482  -1.901   2.777  1.00  0.00     0.053 C 
BRANCH   8   9
ATOM      9  C   UNL     1       8.613  -0.995   2.655  1.00  0.00     0.189 C 
ATOM     10  O   UNL     1       9.721  -1.457   3.073  1.00  0.00    -0.289 OA
BRANCH   9  11
ATOM     11  C   UNL     1       8.599   0.330   2.125  1.00  0.00     0.064 A 
ATOM     12  C   UNL     1       8.630   2.890   0.913  1.00  0.00     0.122 A 
ATOM     13  C   UNL     1       8.993   1.771   0.210  1.00  0.00     0.047 A 
ATOM     14  C   UNL     1       8.252   2.732   2.221  1.00  0.00     0.093 A 
ATOM     15  C   UNL     1       8.979   0.536   0.790  1.00  0.00     0.020 A 
ATOM     16  C   UNL     1       8.241   1.476   2.802  1.00  0.00     0.133 A 
BRANCH  12  17
ATOM     17  O   UNL     1       8.624   4.169   0.378  1.00  0.00    -0.497 OA
ATOM     18  C   UNL     1       9.568   4.571  -0.595  1.00  0.00     0.278 C 
ENDBRANCH  12  17
BRANCH  16  19
ATOM     19  O   UNL     1       7.849   1.396   4.120  1.00  0.00    -0.496 OA
ATOM     20  C   UNL     1       8.667   1.124   5.218  1.00  0.00     0.278 C 
ENDBRANCH  16  19
ENDBRANCH   9  11
ENDBRANCH   8   9
ENDBRANCH   7   8
ENDBRANCH   1   7
BRANCH   4  21
ATOM     21  O   UNL     1       3.716   2.139  -0.713  1.00  0.00    -0.494 OA
BRANCH  21  22
ATOM     22  C   UNL     1       4.173   2.760  -1.900  1.00  0.00     0.229 C 
BRANCH  22  23
ATOM     23  C   UNL     1       4.813   4.082  -1.573  1.00  0.00     0.042 C 
BRANCH  23  24
ATOM     24  C   UNL     1       5.398   3.986  -0.182  1.00  0.00     0.015 C 
BRANCH  24  25
ATOM     25  C   UNL     1       4.962   5.173   0.653  1.00  0.00     0.081 C 
ATOM     26  Br  UNL     1       6.008   5.237   2.285  1.00  0.00    -0.093 Br
ENDBRANCH  24  25
ENDBRANCH  23  24
ENDBRANCH  22  23
ENDBRANCH  21  22
ENDBRANCH   4  21
TORSDOF 11
ENDMDL
MODEL 3
REMARK VINA RESULT:      -2.1      2.397      5.815
REMARK SMILES COc1ccc(C(=O)C=Cc2ccc(OCCCCBr)cc2)c(OC)c1
REMARK SMILES IDX 11 1 12 2 13 3 14 4 21 5 22 6 10 7 9 8 7 9 8 10 6 11 3 12
REMARK SMILES IDX 4 13 26 14 5 15 23 16 2 17 1 18 24 19 25 20 15 21 16 22
REMARK SMILES IDX 17 23 18 24 19 25 20 26
REMARK H PARENT
ROOT
ATOM      1  C   UNL     1       5.552   0.448   0.234  1.00  0.00    -0.025 A 
ATOM      2  C   UNL     1       6.657   1.114   0.719  1.00  0.00     0.012 A 
ATOM      3  C   UNL     1       7.688   0.470   1.389  1.00  0.00     0.047 A 
ATOM      4  C   UNL     1       7.637  -0.894   1.596  1.00  0.00     0.119 A 
ATOM      5  C   UNL     1       6.542  -1.586   1.121  1.00  0.00     0.047 A 
ATOM      6  C   UNL     1       5.528  -0.927   0.458  1.00  0.00     0.012 A 
ENDROOT
BRANCH   1   7
ATOM      7  C   UNL     1       4.460   1.102  -0.471  1.00  0.00     0.012 C 
BRANCH   7   8
ATOM      8  C   UNL     1       3.883   2.223  -0.071  1.00  0.00     0.053 C 
BRANCH   8   9
ATOM      9  C   UNL     1       4.700   3.425  -0.055  1.00  0.00     0.189 C 
ATOM     10  O   UNL     1       4.878   3.972  -1.188  1.00  0.00    -0.289 OA
BRANCH   9  11
ATOM     11  C   UNL     1       5.307   4.036   1.084  1.00  0.00     0.064 A 
ATOM     12  C   UNL     1       6.346   5.252   3.422  1.00  0.00     0.122 A 
ATOM     13  C   UNL     1       5.013   4.953   3.313  1.00  0.00     0.047 A 
ATOM     14  C   UNL     1       7.161   4.945   2.363  1.00  0.00     0.093 A 
ATOM     15  C   UNL     1       4.508   4.366   2.189  1.00  0.00     0.020 A 
ATOM     16  C   UNL     1       6.641   4.351   1.226  1.00  0.00     0.133 A 
BRANCH  12  17
ATOM     17  O   UNL     1       6.915   5.846   4.537  1.00  0.00    -0.497 OA
ATOM     18  C   UNL     1       8.063   5.307   5.161  1.00  0.00     0.278 C 
ENDBRANCH  12  17
BRANCH  16  19
ATOM     19  O   UNL     1       7.522   4.072   0.204  1.00  0.00    -0.496 OA
ATOM     20  C   UNL     1       7.623   4.744  -1.016  1.00  0.00     0.278 C 
ENDBRANCH  16  19
ENDBRANCH   9  11
ENDBRANCH   8   9
ENDBRANCH   7   8
ENDBRANCH   1   7
BRANCH   4  21
ATOM     21  O   UNL     1       8.634  -1.601   2.258  1.00  0.00    -0.494 OA
BRANCH  21  22
ATOM     22  C   UNL     1       8.584  -1.858   3.649  1.00  0.00     0.229 C 
BRANCH  22  23
ATOM     23  C   UNL     1       8.340  -0.577   4.399  1.00  0.00     0.042 C 
BRANCH  23  24
ATOM     24  C   UNL     1       9.683   0.049   4.703  1.00  0.00     0.015 C 
BRANCH  24  25
ATOM     25  C   UNL     1       9.498   1.463   5.216  1.00  0.00     0.081 C 
ATOM     26  Br  UNL     1       7.654   2.009   4.965  1.00  0.00    -0.093 Br
ENDBRANCH  24  25
ENDBRANCH  23  24
ENDBRANCH  22  23
ENDBRANCH  21  22
ENDBRANCH   4  21
TORSDOF 11
ENDMDL
MODEL 4
REMARK VINA RESULT:      -1.7      1.996      2.862
REMARK SMILES COc1ccc(C(=O)C=Cc2ccc(OCCCCBr)cc2)c(OC)c1
REMARK SMILES IDX 11 1 12 2 13 3 14 4 21 5 22 6 10 7 9 8 7 9 8 10 6 11 3 12
REMARK SMILES IDX 4 13 26 14 5 15 23 16 2 17 1 18 24 19 25 20 15 21 16 22
REMARK SMILES IDX 17 23 18 24 19 25 20 26
REMARK H PARENT
ROOT
ATOM      1  C   UNL     1       8.450   3.023   3.714  1.00  0.00    -0.025 A 
ATOM      2  C   UNL     1       8.623   3.405   2.400  1.00  0.00     0.012 A 
ATOM      3  C   UNL     1       7.794   4.320   1.768  1.00  0.00     0.047 A 
ATOM      4  C   UNL     1       6.741   4.893   2.454  1.00  0.00     0.119 A 
ATOM      5  C   UNL     1       6.545   4.529   3.771  1.00  0.00     0.047 A 
ATOM      6  C   UNL     1       7.381   3.618   4.380  1.00  0.00     0.012 A 
ENDROOT
BRANCH   1   7
ATOM      7  C   UNL     1       9.307   2.065   4.397  1.00  0.00     0.012 C 
BRANCH   7   8
ATOM      8  C   UNL     1       9.731   0.934   3.860  1.00  0.00     0.053 C 
BRANCH   8   9
ATOM      9  C   UNL     1       8.753  -0.126   3.675  1.00  0.00     0.189 C 
ATOM     10  O   UNL     1       8.969  -1.181   4.350  1.00  0.00    -0.289 OA
BRANCH   9  11
ATOM     11  C   UNL     1       7.603  -0.097   2.831  1.00  0.00     0.064 A 
ATOM     12  C   UNL     1       5.218  -0.052   1.305  1.00  0.00     0.122 A 
ATOM     13  C   UNL     1       5.181  -0.154   2.671  1.00  0.00     0.047 A 
ATOM     14  C   UNL     1       6.445   0.027   0.699  1.00  0.00     0.093 A 
ATOM     15  C   UNL     1       6.328  -0.175   3.410  1.00  0.00     0.020 A 
ATOM     16  C   UNL     1       7.604   0.005   1.456  1.00  0.00     0.133 A 
BRANCH  12  17
ATOM     17  O   UNL     1       4.087  -0.026   0.503  1.00  0.00    -0.497 OA
ATOM     18  C   UNL     1       4.150  -0.327  -0.877  1.00  0.00     0.278 C 
ENDBRANCH  12  17
BRANCH  16  19
ATOM     19  O   UNL     1       8.799   0.089   0.778  1.00  0.00    -0.496 OA
ATOM     20  C   UNL     1       9.708   1.149   0.817  1.00  0.00     0.278 C 
ENDBRANCH  16  19
ENDBRANCH   9  11
ENDBRANCH   8   9
ENDBRANCH   7   8
ENDBRANCH   1   7
BRANCH   4  21
ATOM     21  O   UNL     1       5.874   5.816   1.883  1.00  0.00    -0.494 OA
BRANCH  21  22
ATOM     22  C   UNL     1       4.878   5.443   0.949  1.00  0.00     0.229 C 
BRANCH  22  23
ATOM     23  C   UNL     1       5.393   5.633  -0.452  1.00  0.00     0.042 C 
BRANCH  23  24
ATOM     24  C   UNL     1       6.904   5.664  -0.394  1.00  0.00     0.015 C 
BRANCH  24  25
ATOM     25  C   UNL     1       7.484   5.638  -1.794  1.00  0.00     0.081 C 
ATOM     26  Br  UNL     1       8.736   4.165  -1.949  1.00  0.00    -0.093 Br
ENDBRANCH  24  25
ENDBRANCH  23  24
ENDBRANCH  22  23
ENDBRANCH  21  22
ENDBRANCH   4  21
TORSDOF 11
ENDMDL
MODEL 5
REMARK VINA RESULT:      -1.1      2.527      5.212
REMARK SMILES COc1ccc(C(=O)C=Cc2ccc(OCCCCBr)cc2)c(OC)c1
REMARK SMILES IDX 11 1 12 2 13 3 14 4 21 5 22 6 10 7 9 8 7 9 8 10 6 11 3 12
REMARK SMILES IDX 4 13 26 14 5 15 23 16 2 17 1 18 24 19 25 20 15 21 16 22
REMARK SMILES IDX 17 23 18 24 19 25 20 26
REMARK H PARENT
ROOT
ATOM      1  C   UNL     1       5.323  -0.112   0.033  1.00  0.00    -0.025 A 
ATOM      2  C   UNL     1       4.414   0.201   1.021  1.00  0.00     0.012 A 
ATOM      3  C   UNL     1       4.599  -0.146   2.352  1.00  0.00     0.047 A 
ATOM      4  C   UNL     1       5.732  -0.834   2.738  1.00  0.00     0.119 A 
ATOM      5  C   UNL     1       6.660  -1.161   1.770  1.00  0.00     0.047 A 
ATOM      6  C   UNL     1       6.456  -0.806   0.453  1.00  0.00     0.012 A 
ENDROOT
BRANCH   1   7
ATOM      7  C   UNL     1       5.149   0.242  -1.367  1.00  0.00     0.012 C 
BRANCH   7   8
ATOM      8  C   UNL     1       6.040   0.909  -2.081  1.00  0.00     0.053 C 
BRANCH   8   9
ATOM      9  C   UNL     1       6.952   1.784  -1.361  1.00  0.00     0.189 C 
ATOM     10  O   UNL     1       8.122   1.864  -1.852  1.00  0.00    -0.289 OA
BRANCH   9  11
ATOM     11  C   UNL     1       6.667   2.543  -0.187  1.00  0.00     0.064 A 
ATOM     12  C   UNL     1       6.237   3.958   2.229  1.00  0.00     0.122 A 
ATOM     13  C   UNL     1       7.206   2.993   2.138  1.00  0.00     0.047 A 
ATOM     14  C   UNL     1       5.482   4.216   1.115  1.00  0.00     0.093 A 
ATOM     15  C   UNL     1       7.418   2.310   0.976  1.00  0.00     0.020 A 
ATOM     16  C   UNL     1       5.702   3.518  -0.060  1.00  0.00     0.133 A 
BRANCH  12  17
ATOM     17  O   UNL     1       5.976   4.684   3.381  1.00  0.00    -0.497 OA
ATOM     18  C   UNL     1       7.007   5.049   4.277  1.00  0.00     0.278 C 
ENDBRANCH  12  17
BRANCH  16  19
ATOM     19  O   UNL     1       4.904   3.834  -1.138  1.00  0.00    -0.496 OA
ATOM     20  C   UNL     1       4.092   4.962  -1.273  1.00  0.00     0.278 C 
ENDBRANCH  16  19
ENDBRANCH   9  11
ENDBRANCH   8   9
ENDBRANCH   7   8
ENDBRANCH   1   7
BRANCH   4  21
ATOM     21  O   UNL     1       5.982  -1.213   4.052  1.00  0.00    -0.494 OA
BRANCH  21  22
ATOM     22  C   UNL     1       7.165  -0.843   4.735  1.00  0.00     0.229 C 
BRANCH  22  23
ATOM     23  C   UNL     1       7.253   0.656   4.833  1.00  0.00     0.042 C 
BRANCH  23  24
ATOM     24  C   UNL     1       8.690   1.020   5.133  1.00  0.00     0.015 C 
BRANCH  24  25
ATOM     25  C   UNL     1       9.609  -0.131   4.778  1.00  0.00     0.081 C 
ATOM     26  Br  UNL     1       9.626  -0.378   2.854  1.00  0.00    -0.093 Br
ENDBRANCH  24  25
ENDBRANCH  23  24
ENDBRANCH  22  23
ENDBRANCH  21  22
ENDBRANCH   4  21
TORSDOF 11
ENDMDL
MODEL 6
REMARK VINA RESULT:      -0.1      2.487      4.444
REMARK SMILES COc1ccc(C(=O)C=Cc2ccc(OCCCCBr)cc2)c(OC)c1
REMARK SMILES IDX 11 1 12 2 13 3 14 4 21 5 22 6 10 7 9 8 7 9 8 10 6 11 3 12
REMARK SMILES IDX 4 13 26 14 5 15 23 16 2 17 1 18 24 19 25 20 15 21 16 22
REMARK SMILES IDX 17 23 18 24 19 25 20 26
REMARK H PARENT
ROOT
ATOM      1  C   UNL     1       9.241   2.534   1.832  1.00  0.00    -0.025 A 
ATOM      2  C   UNL     1       8.377   2.872   2.852  1.00  0.00     0.012 A 
ATOM      3  C   UNL     1       8.011   1.983   3.853  1.00  0.00     0.047 A 
ATOM      4  C   UNL     1       8.516   0.698   3.859  1.00  0.00     0.119 A 
ATOM      5  C   UNL     1       9.384   0.333   2.850  1.00  0.00     0.047 A 
ATOM      6  C   UNL     1       9.734   1.231   1.865  1.00  0.00     0.012 A 
ENDROOT
BRANCH   1   7
ATOM      7  C   UNL     1       9.638   3.449   0.773  1.00  0.00     0.012 C 
BRANCH   7   8
ATOM      8  C   UNL     1       9.017   3.553  -0.390  1.00  0.00     0.053 C 
BRANCH   8   9
ATOM      9  C   UNL     1       7.618   3.160  -0.438  1.00  0.00     0.189 C 
ATOM     10  O   UNL     1       7.371   2.129  -1.140  1.00  0.00    -0.289 OA
BRANCH   9  11
ATOM     11  C   UNL     1       6.522   3.804   0.211  1.00  0.00     0.064 A 
ATOM     12  C   UNL     1       4.466   5.201   1.569  1.00  0.00     0.122 A 
ATOM     13  C   UNL     1       5.773   5.602   1.661  1.00  0.00     0.047 A 
ATOM     14  C   UNL     1       4.184   4.102   0.799  1.00  0.00     0.093 A 
ATOM     15  C   UNL     1       6.767   4.932   1.008  1.00  0.00     0.020 A 
ATOM     16  C   UNL     1       5.198   3.428   0.141  1.00  0.00     0.133 A 
BRANCH  12  17
ATOM     17  O   UNL     1       3.416   5.841   2.208  1.00  0.00    -0.497 OA
ATOM     18  C   UNL     1       2.748   5.254   3.307  1.00  0.00     0.278 C 
ENDBRANCH  12  17
BRANCH  16  19
ATOM     19  O   UNL     1       4.837   2.333  -0.614  1.00  0.00    -0.496 OA
ATOM     20  C   UNL     1       3.757   2.246  -1.494  1.00  0.00     0.278 C 
ENDBRANCH  16  19
ENDBRANCH   9  11
ENDBRANCH   8   9
ENDBRANCH   7   8
ENDBRANCH   1   7
BRANCH   4  21
ATOM     21  O   UNL     1       8.193  -0.242   4.831  1.00  0.00    -0.494 OA
BRANCH  21  22
ATOM     22  C   UNL     1       6.926  -0.871   4.885  1.00  0.00     0.229 C 
BRANCH  22  23
ATOM     23  C   UNL     1       6.049  -0.353   3.777  1.00  0.00     0.042 C 
BRANCH  23  24
ATOM     24  C   UNL     1       6.636  -0.814   2.462  1.00  0.00     0.015 C 
BRANCH  24  25
ATOM     25  C   UNL     1       6.420   0.238   1.394  1.00  0.00     0.081 C 
ATOM     26  Br  UNL     1       6.234  -0.622  -0.335  1.00  0.00    -0.093 Br
ENDBRANCH  24  25
ENDBRANCH  23  24
ENDBRANCH  22  23
ENDBRANCH  21  22
ENDBRANCH   4  21
TORSDOF 11
ENDMDL
MODEL 7
REMARK VINA RESULT:      -0.1      2.439      4.869
REMARK SMILES COc1ccc(C(=O)C=Cc2ccc(OCCCCBr)cc2)c(OC)c1
REMARK SMILES IDX 11 1 12 2 13 3 14 4 21 5 22 6 10 7 9 8 7 9 8 10 6 11 3 12
REMARK SMILES IDX 4 13 26 14 5 15 23 16 2 17 1 18 24 19 25 20 15 21 16 22
REMARK SMILES IDX 17 23 18 24 19 25 20 26
REMARK H PARENT
ROOT
ATOM      1  C   UNL     1       4.088   0.534   0.131  1.00  0.00    -0.025 A 
ATOM      2  C   UNL     1       3.978   0.819  -1.214  1.00  0.00     0.012 A 
ATOM      3  C   UNL     1       4.053   2.110  -1.718  1.00  0.00     0.047 A 
ATOM      4  C   UNL     1       4.248   3.178  -0.865  1.00  0.00     0.119 A 
ATOM      5  C   UNL     1       4.362   2.922   0.487  1.00  0.00     0.047 A 
ATOM      6  C   UNL     1       4.284   1.632   0.967  1.00  0.00     0.012 A 
ENDROOT
BRANCH   1   7
ATOM      7  C   UNL     1       4.011  -0.810   0.681  1.00  0.00     0.012 C 
BRANCH   7   8
ATOM      8  C   UNL     1       4.987  -1.392   1.358  1.00  0.00     0.053 C 
BRANCH   8   9
ATOM      9  C   UNL     1       6.206  -0.627   1.563  1.00  0.00     0.189 C 
ATOM     10  O   UNL     1       6.452  -0.318   2.771  1.00  0.00    -0.289 OA
BRANCH   9  11
ATOM     11  C   UNL     1       7.131  -0.199   0.563  1.00  0.00     0.064 A 
ATOM     12  C   UNL     1       8.825   0.666  -1.535  1.00  0.00     0.122 A 
ATOM     13  C   UNL     1       7.472   0.553  -1.720  1.00  0.00     0.047 A 
ATOM     14  C   UNL     1       9.333   0.347  -0.303  1.00  0.00     0.093 A 
ATOM     15  C   UNL     1       6.652   0.137  -0.712  1.00  0.00     0.020 A 
ATOM     16  C   UNL     1       8.495  -0.075   0.715  1.00  0.00     0.133 A 
BRANCH  12  17
ATOM     17  O   UNL     1       9.706   1.083  -2.520  1.00  0.00    -0.497 OA
ATOM     18  C   UNL     1       9.370   2.111  -3.430  1.00  0.00     0.278 C 
ENDBRANCH  12  17
BRANCH  16  19
ATOM     19  O   UNL     1       9.079  -0.377   1.925  1.00  0.00    -0.496 OA
ATOM     20  C   UNL     1       9.592   0.531   2.854  1.00  0.00     0.278 C 
ENDBRANCH  16  19
ENDBRANCH   9  11
ENDBRANCH   8   9
ENDBRANCH   7   8
ENDBRANCH   1   7
BRANCH   4  21
ATOM     21  O   UNL     1       4.334   4.494  -1.301  1.00  0.00    -0.494 OA
BRANCH  21  22
ATOM     22  C   UNL     1       5.570   5.111  -1.611  1.00  0.00     0.229 C 
BRANCH  22  23
ATOM     23  C   UNL     1       6.127   5.786  -0.388  1.00  0.00     0.042 C 
BRANCH  23  24
ATOM     24  C   UNL     1       7.600   5.454  -0.301  1.00  0.00     0.015 C 
BRANCH  24  25
ATOM     25  C   UNL     1       7.988   4.495  -1.408  1.00  0.00     0.081 C 
ATOM     26  Br  UNL     1       8.794   5.483  -2.870  1.00  0.00    -0.093 Br
ENDBRANCH  24  25
ENDBRANCH  23  24
ENDBRANCH  22  23
ENDBRANCH  21  22
ENDBRANCH   4  21
TORSDOF 11
ENDMDL
MODEL 8
REMARK VINA RESULT:       0.5      2.466      3.475
REMARK SMILES COc1ccc(C(=O)C=Cc2ccc(OCCCCBr)cc2)c(OC)c1
REMARK SMILES IDX 11 1 12 2 13 3 14 4 21 5 22 6 10 7 9 8 7 9 8 10 6 11 3 12
REMARK SMILES IDX 4 13 26 14 5 15 23 16 2 17 1 18 24 19 25 20 15 21 16 22
REMARK SMILES IDX 17 23 18 24 19 25 20 26
REMARK H PARENT
ROOT
ATOM      1  C   UNL     1       8.965   3.155   2.808  1.00  0.00    -0.025 A 
ATOM      2  C   UNL     1       9.736   3.264   1.671  1.00  0.00     0.012 A 
ATOM      3  C   UNL     1       9.399   4.093   0.610  1.00  0.00     0.047 A 
ATOM      4  C   UNL     1       8.250   4.856   0.663  1.00  0.00     0.119 A 
ATOM      5  C   UNL     1       7.459   4.767   1.791  1.00  0.00     0.047 A 
ATOM      6  C   UNL     1       7.811   3.937   2.833  1.00  0.00     0.012 A 
ENDROOT
BRANCH   1   7
ATOM      7  C   UNL     1       9.298   2.293   3.932  1.00  0.00     0.012 C 
BRANCH   7   8
ATOM      8  C   UNL     1       8.799   1.082   4.112  1.00  0.00     0.053 C 
BRANCH   8   9
ATOM      9  C   UNL     1       7.360   0.925   3.973  1.00  0.00     0.189 C 
ATOM     10  O   UNL     1       6.683   1.225   5.005  1.00  0.00    -0.289 OA
BRANCH   9  11
ATOM     11  C   UNL     1       6.653   0.476   2.816  1.00  0.00     0.064 A 
ATOM     12  C   UNL     1       5.334  -0.574   0.541  1.00  0.00     0.122 A 
ATOM     13  C   UNL     1       6.223  -1.333   1.256  1.00  0.00     0.047 A 
ATOM     14  C   UNL     1       5.103   0.710   0.961  1.00  0.00     0.093 A 
ATOM     15  C   UNL     1       6.860  -0.832   2.353  1.00  0.00     0.020 A 
ATOM     16  C   UNL     1       5.754   1.212   2.075  1.00  0.00     0.133 A 
BRANCH  12  17
ATOM     17  O   UNL     1       4.657  -1.029  -0.580  1.00  0.00    -0.497 OA
ATOM     18  C   UNL     1       3.515  -1.856  -0.473  1.00  0.00     0.278 C 
ENDBRANCH  12  17
BRANCH  16  19
ATOM     19  O   UNL     1       5.470   2.510   2.437  1.00  0.00    -0.496 OA
ATOM     20  C   UNL     1       4.907   3.498   1.626  1.00  0.00     0.278 C 
ENDBRANCH  16  19
ENDBRANCH   9  11
ENDBRANCH   8   9
ENDBRANCH   7   8
ENDBRANCH   1   7
BRANCH   4  21
ATOM     21  O   UNL     1       7.854   5.707  -0.361  1.00  0.00    -0.494 OA
BRANCH  21  22
ATOM     22  C   UNL     1       7.294   5.228  -1.570  1.00  0.00     0.229 C 
BRANCH  22  23
ATOM     23  C   UNL     1       6.142   4.307  -1.272  1.00  0.00     0.042 C 
BRANCH  23  24
ATOM     24  C   UNL     1       6.450   2.960  -1.886  1.00  0.00     0.015 C 
BRANCH  24  25
ATOM     25  C   UNL     1       7.854   2.524  -1.518  1.00  0.00     0.081 C 
ATOM     26  Br  UNL     1       7.941   0.587  -1.470  1.00  0.00    -0.093 Br
ENDBRANCH  24  25
ENDBRANCH  23  24
ENDBRANCH  22  23
ENDBRANCH  21  22
ENDBRANCH   4  21
TORSDOF 11
ENDMDL
