MODEL 1
REMARK VINA RESULT:      -5.7      0.000      0.000
REMARK SMILES CCC1(Cc2c[nH]c3ccccc23)C(=O)N=C(N)N(C)C1=O
REMARK SMILES IDX 3 1 14 2 15 3 16 4 17 5 18 6 19 7 20 8 21 9 22 10 2 13 1 14
REMARK SMILES IDX 4 15 5 16 6 17 13 18 7 19 12 20 8 21 11 22 9 23 10 24
REMARK H PARENT 18 11 18 12 7 25
ROOT
ATOM      1  C   UNL     1       5.492   1.675  -0.291  1.00  0.00     0.134 C 
ATOM      2  C   UNL     1       5.480   2.957  -1.022  1.00  0.00     0.264 C 
ATOM      3  O   UNL     1       4.558   3.265  -1.840  1.00  0.00    -0.271 OA
ATOM      4  N   UNL     1       6.515   3.903  -0.833  1.00  0.00    -0.178 NA
ATOM      5  C   UNL     1       7.723   3.563  -0.530  1.00  0.00     0.205 C 
ATOM      6  N   UNL     1       8.780   4.481  -0.334  1.00  0.00    -0.369 N 
ATOM      7  N   UNL     1       7.978   2.171  -0.391  1.00  0.00    -0.285 N 
ATOM      8  C   UNL     1       9.322   1.686  -0.048  1.00  0.00     0.156 C 
ATOM      9  C   UNL     1       6.896   1.233  -0.590  1.00  0.00     0.245 C 
ATOM     10  O   UNL     1       7.182   0.095  -1.003  1.00  0.00    -0.273 OA
ATOM     11  H   UNL     1       9.044   4.692   0.655  1.00  0.00     0.159 HD
ATOM     12  H   UNL     1       9.282   4.930  -1.131  1.00  0.00     0.159 HD
ENDROOT
BRANCH   1  13
ATOM     13  C   UNL     1       4.615   0.620  -0.928  1.00  0.00     0.024 C 
ATOM     14  C   UNL     1       3.314   0.415  -0.179  1.00  0.00     0.005 C 
ENDBRANCH   1  13
BRANCH   1  15
ATOM     15  C   UNL     1       5.430   1.749   1.156  1.00  0.00     0.065 C 
BRANCH  15  16
ATOM     16  C   UNL     1       6.089   0.863   2.063  1.00  0.00    -0.021 A 
ATOM     17  C   UNL     1       5.814  -0.505   2.222  1.00  0.00     0.087 A 
ATOM     18  C   UNL     1       7.102   1.108   2.964  1.00  0.00     0.003 A 
ATOM     19  N   UNL     1       6.598  -1.037   3.143  1.00  0.00    -0.361 N 
ATOM     20  C   UNL     1       7.814   2.228   3.305  1.00  0.00     0.010 A 
ATOM     21  C   UNL     1       7.407  -0.082   3.627  1.00  0.00     0.046 A 
ATOM     22  C   UNL     1       8.804   2.176   4.276  1.00  0.00     0.001 A 
ATOM     23  C   UNL     1       8.380  -0.158   4.591  1.00  0.00     0.026 A 
ATOM     24  C   UNL     1       9.088   0.974   4.923  1.00  0.00     0.002 A 
ATOM     25  H   UNL     1       6.595  -2.023   3.447  1.00  0.00     0.166 HD
ENDBRANCH  15  16
ENDBRANCH   1  15
TORSDOF 3
ENDMDL
MODEL 2
REMARK VINA RESULT:      -5.2      2.281      5.383
REMARK SMILES CCC1(Cc2c[nH]c3ccccc23)C(=O)N=C(N)N(C)C1=O
REMARK SMILES IDX 3 1 14 2 15 3 16 4 17 5 18 6 19 7 20 8 21 9 22 10 2 13 1 14
REMARK SMILES IDX 4 15 5 16 6 17 13 18 7 19 12 20 8 21 11 22 9 23 10 24
REMARK H PARENT 18 11 18 12 7 25
ROOT
ATOM      1  C   UNL     1       7.211   0.479   1.287  1.00  0.00     0.134 C 
ATOM      2  C   UNL     1       6.396  -0.382   2.165  1.00  0.00     0.264 C 
ATOM      3  O   UNL     1       6.911  -1.278   2.905  1.00  0.00    -0.271 OA
ATOM      4  N   UNL     1       4.990  -0.236   2.214  1.00  0.00    -0.178 NA
ATOM      5  C   UNL     1       4.297   0.168   1.203  1.00  0.00     0.205 C 
ATOM      6  N   UNL     1       2.892   0.325   1.217  1.00  0.00    -0.369 N 
ATOM      7  N   UNL     1       5.016   0.467   0.014  1.00  0.00    -0.285 N 
ATOM      8  C   UNL     1       4.314   0.934  -1.190  1.00  0.00     0.156 C 
ATOM      9  C   UNL     1       6.453   0.308   0.001  1.00  0.00     0.245 C 
ATOM     10  O   UNL     1       6.998   0.034  -1.084  1.00  0.00    -0.273 OA
ATOM     11  H   UNL     1       2.527   1.300   1.317  1.00  0.00     0.159 HD
ATOM     12  H   UNL     1       2.240  -0.485   1.131  1.00  0.00     0.159 HD
ENDROOT
BRANCH   1  13
ATOM     13  C   UNL     1       8.583  -0.090   1.001  1.00  0.00     0.024 C 
ATOM     14  C   UNL     1       9.684   0.938   1.154  1.00  0.00     0.005 C 
ENDBRANCH   1  13
BRANCH   1  15
ATOM     15  C   UNL     1       7.170   1.905   1.551  1.00  0.00     0.065 C 
BRANCH  15  16
ATOM     16  C   UNL     1       6.871   2.920   0.591  1.00  0.00    -0.021 A 
ATOM     17  C   UNL     1       7.625   3.214  -0.558  1.00  0.00     0.087 A 
ATOM     18  C   UNL     1       5.831   3.822   0.547  1.00  0.00     0.003 A 
ATOM     19  N   UNL     1       7.082   4.210  -1.234  1.00  0.00    -0.361 N 
ATOM     20  C   UNL     1       4.755   4.065   1.361  1.00  0.00     0.010 A 
ATOM     21  C   UNL     1       5.975   4.616  -0.592  1.00  0.00     0.046 A 
ATOM     22  C   UNL     1       3.843   5.066   1.058  1.00  0.00     0.001 A 
ATOM     23  C   UNL     1       5.088   5.612  -0.911  1.00  0.00     0.026 A 
ATOM     24  C   UNL     1       4.012   5.845  -0.086  1.00  0.00     0.002 A 
ATOM     25  H   UNL     1       7.442   4.616  -2.112  1.00  0.00     0.166 HD
ENDBRANCH  15  16
ENDBRANCH   1  15
TORSDOF 3
ENDMDL
MODEL 3
REMARK VINA RESULT:      -5.0      1.867      4.362
REMARK SMILES CCC1(Cc2c[nH]c3ccccc23)C(=O)N=C(N)N(C)C1=O
REMARK SMILES IDX 3 1 14 2 15 3 16 4 17 5 18 6 19 7 20 8 21 9 22 10 2 13 1 14
REMARK SMILES IDX 4 15 5 16 6 17 13 18 7 19 12 20 8 21 11 22 9 23 10 24
REMARK H PARENT 18 11 18 12 7 25
ROOT
ATOM      1  C   UNL     1       5.292   0.576   0.921  1.00  0.00     0.134 C 
ATOM      2  C   UNL     1       6.241   0.228  -0.155  1.00  0.00     0.264 C 
ATOM      3  O   UNL     1       5.864  -0.289  -1.252  1.00  0.00    -0.271 OA
ATOM      4  N   UNL     1       7.627   0.464   0.004  1.00  0.00    -0.178 NA
ATOM      5  C   UNL     1       8.211   0.432   1.154  1.00  0.00     0.205 C 
ATOM      6  N   UNL     1       9.593   0.662   1.348  1.00  0.00    -0.369 N 
ATOM      7  N   UNL     1       7.391   0.145   2.280  1.00  0.00    -0.285 N 
ATOM      8  C   UNL     1       7.966   0.088   3.631  1.00  0.00     0.156 C 
ATOM      9  C   UNL     1       5.979  -0.088   2.080  1.00  0.00     0.245 C 
ATOM     10  O   UNL     1       5.394  -0.835   2.886  1.00  0.00    -0.273 OA
ATOM     11  H   UNL     1       9.868   1.604   1.709  1.00  0.00     0.159 HD
ATOM     12  H   UNL     1      10.313  -0.066   1.146  1.00  0.00     0.159 HD
ENDROOT
BRANCH   1  13
ATOM     13  C   UNL     1       3.966  -0.141   0.799  1.00  0.00     0.024 C 
ATOM     14  C   UNL     1       2.784   0.795   0.932  1.00  0.00     0.005 C 
ENDBRANCH   1  13
BRANCH   1  15
ATOM     15  C   UNL     1       5.213   1.976   1.293  1.00  0.00     0.065 C 
BRANCH  15  16
ATOM     16  C   UNL     1       5.536   3.081   0.448  1.00  0.00    -0.021 A 
ATOM     17  C   UNL     1       4.744   3.572  -0.604  1.00  0.00     0.087 A 
ATOM     18  C   UNL     1       6.643   3.902   0.443  1.00  0.00     0.003 A 
ATOM     19  N   UNL     1       5.328   4.600  -1.191  1.00  0.00    -0.361 N 
ATOM     20  C   UNL     1       7.779   3.960   1.207  1.00  0.00     0.010 A 
ATOM     21  C   UNL     1       6.499   4.841  -0.580  1.00  0.00     0.046 A 
ATOM     22  C   UNL     1       8.751   4.922   0.967  1.00  0.00     0.001 A 
ATOM     23  C   UNL     1       7.446   5.799  -0.837  1.00  0.00     0.026 A 
ATOM     24  C   UNL     1       8.582   5.847  -0.062  1.00  0.00     0.002 A 
ATOM     25  H   UNL     1       4.954   5.137  -1.988  1.00  0.00     0.166 HD
ENDBRANCH  15  16
ENDBRANCH   1  15
TORSDOF 3
ENDMDL
MODEL 4
REMARK VINA RESULT:      -4.9      2.417      5.030
REMARK SMILES CCC1(Cc2c[nH]c3ccccc23)C(=O)N=C(N)N(C)C1=O
REMARK SMILES IDX 3 1 14 2 15 3 16 4 17 5 18 6 19 7 20 8 21 9 22 10 2 13 1 14
REMARK SMILES IDX 4 15 5 16 6 17 13 18 7 19 12 20 8 21 11 22 9 23 10 24
REMARK H PARENT 18 11 18 12 7 25
ROOT
ATOM      1  C   UNL     1       7.493   1.214   1.982  1.00  0.00     0.134 C 
ATOM      2  C   UNL     1       8.545   1.901   1.207  1.00  0.00     0.264 C 
ATOM      3  O   UNL     1       9.307   1.283   0.400  1.00  0.00    -0.271 OA
ATOM      4  N   UNL     1       8.741   3.296   1.339  1.00  0.00    -0.178 NA
ATOM      5  C   UNL     1       8.493   3.933   2.433  1.00  0.00     0.205 C 
ATOM      6  N   UNL     1       8.678   5.325   2.601  1.00  0.00    -0.369 N 
ATOM      7  N   UNL     1       8.003   3.163   3.524  1.00  0.00    -0.285 N 
ATOM      8  C   UNL     1       7.691   3.800   4.811  1.00  0.00     0.156 C 
ATOM      9  C   UNL     1       7.812   1.740   3.352  1.00  0.00     0.245 C 
ATOM     10  O   UNL     1       7.923   1.014   4.356  1.00  0.00    -0.273 OA
ATOM     11  H   UNL     1       7.822   5.923   2.557  1.00  0.00     0.159 HD
ATOM     12  H   UNL     1       9.619   5.746   2.762  1.00  0.00     0.159 HD
ENDROOT
BRANCH   1  13
ATOM     13  C   UNL     1       7.710  -0.280   2.085  1.00  0.00     0.024 C 
ATOM     14  C   UNL     1       6.418  -1.063   1.989  1.00  0.00     0.005 C 
ENDBRANCH   1  13
BRANCH   1  15
ATOM     15  C   UNL     1       6.125   1.631   1.737  1.00  0.00     0.065 C 
BRANCH  15  16
ATOM     16  C   UNL     1       5.645   2.251   0.543  1.00  0.00    -0.021 A 
ATOM     17  C   UNL     1       5.681   1.693  -0.746  1.00  0.00     0.087 A 
ATOM     18  C   UNL     1       5.060   3.485   0.357  1.00  0.00     0.003 A 
ATOM     19  N   UNL     1       5.162   2.524  -1.631  1.00  0.00    -0.361 N 
ATOM     20  C   UNL     1       4.738   4.515   1.201  1.00  0.00     0.010 A 
ATOM     21  C   UNL     1       4.766   3.640  -0.999  1.00  0.00     0.046 A 
ATOM     22  C   UNL     1       4.139   5.671   0.720  1.00  0.00     0.001 A 
ATOM     23  C   UNL     1       4.176   4.773  -1.498  1.00  0.00     0.026 A 
ATOM     24  C   UNL     1       3.856   5.799  -0.639  1.00  0.00     0.002 A 
ATOM     25  H   UNL     1       5.072   2.353  -2.645  1.00  0.00     0.166 HD
ENDBRANCH  15  16
ENDBRANCH   1  15
TORSDOF 3
ENDMDL
MODEL 5
REMARK VINA RESULT:      -4.9      1.808      3.672
REMARK SMILES CCC1(Cc2c[nH]c3ccccc23)C(=O)N=C(N)N(C)C1=O
REMARK SMILES IDX 3 1 14 2 15 3 16 4 17 5 18 6 19 7 20 8 21 9 22 10 2 13 1 14
REMARK SMILES IDX 4 15 5 16 6 17 13 18 7 19 12 20 8 21 11 22 9 23 10 24
REMARK H PARENT 18 11 18 12 7 25
ROOT
ATOM      1  C   UNL     1       6.550   2.938  -0.257  1.00  0.00     0.134 C 
ATOM      2  C   UNL     1       7.486   1.854  -0.615  1.00  0.00     0.264 C 
ATOM      3  O   UNL     1       8.616   2.083  -1.148  1.00  0.00    -0.271 OA
ATOM      4  N   UNL     1       7.149   0.502  -0.372  1.00  0.00    -0.178 NA
ATOM      5  C   UNL     1       5.932   0.075  -0.387  1.00  0.00     0.205 C 
ATOM      6  N   UNL     1       5.559  -1.269  -0.149  1.00  0.00    -0.369 N 
ATOM      7  N   UNL     1       4.920   1.036  -0.663  1.00  0.00    -0.285 N 
ATOM      8  C   UNL     1       3.504   0.644  -0.701  1.00  0.00     0.156 C 
ATOM      9  C   UNL     1       5.301   2.409  -0.904  1.00  0.00     0.245 C 
ATOM     10  O   UNL     1       4.570   3.093  -1.644  1.00  0.00    -0.273 OA
ATOM     11  H   UNL     1       5.178  -1.491   0.799  1.00  0.00     0.159 HD
ATOM     12  H   UNL     1       5.655  -2.010  -0.876  1.00  0.00     0.159 HD
ENDROOT
BRANCH   1  13
ATOM     13  C   UNL     1       6.836   4.235  -0.981  1.00  0.00     0.024 C 
ATOM     14  C   UNL     1       6.345   5.447  -0.219  1.00  0.00     0.005 C 
ENDBRANCH   1  13
BRANCH   1  15
ATOM     15  C   UNL     1       6.209   3.069   1.147  1.00  0.00     0.065 C 
BRANCH  15  16
ATOM     16  C   UNL     1       7.116   2.919   2.240  1.00  0.00    -0.021 A 
ATOM     17  C   UNL     1       8.020   3.892   2.699  1.00  0.00     0.087 A 
ATOM     18  C   UNL     1       7.329   1.845   3.077  1.00  0.00     0.003 A 
ATOM     19  N   UNL     1       8.717   3.439   3.724  1.00  0.00    -0.361 N 
ATOM     20  C   UNL     1       6.779   0.593   3.166  1.00  0.00     0.010 A 
ATOM     21  C   UNL     1       8.326   2.183   3.993  1.00  0.00     0.046 A 
ATOM     22  C   UNL     1       7.201  -0.304   4.136  1.00  0.00     0.001 A 
ATOM     23  C   UNL     1       8.761   1.313   4.960  1.00  0.00     0.026 A 
ATOM     24  C   UNL     1       8.200   0.059   5.039  1.00  0.00     0.002 A 
ATOM     25  H   UNL     1       9.445   3.957   4.241  1.00  0.00     0.166 HD
ENDBRANCH  15  16
ENDBRANCH   1  15
TORSDOF 3
ENDMDL
MODEL 6
REMARK VINA RESULT:      -4.7      2.450      5.150
REMARK SMILES CCC1(Cc2c[nH]c3ccccc23)C(=O)N=C(N)N(C)C1=O
REMARK SMILES IDX 3 1 14 2 15 3 16 4 17 5 18 6 19 7 20 8 21 9 22 10 2 13 1 14
REMARK SMILES IDX 4 15 5 16 6 17 13 18 7 19 12 20 8 21 11 22 9 23 10 24
REMARK H PARENT 18 11 18 12 7 25
ROOT
ATOM      1  C   UNL     1       8.108   1.630   1.198  1.00  0.00     0.134 C 
ATOM      2  C   UNL     1       8.747   0.606   0.349  1.00  0.00     0.264 C 
ATOM      3  O   UNL     1       9.343  -0.404   0.837  1.00  0.00    -0.271 OA
ATOM      4  N   UNL     1       8.716   0.718  -1.061  1.00  0.00    -0.178 NA
ATOM      5  C   UNL     1       8.683   1.856  -1.668  1.00  0.00     0.205 C 
ATOM      6  N   UNL     1       8.652   2.004  -3.074  1.00  0.00    -0.369 N 
ATOM      7  N   UNL     1       8.678   3.018  -0.848  1.00  0.00    -0.285 N 
ATOM      8  C   UNL     1       8.641   4.359  -1.448  1.00  0.00     0.156 C 
ATOM      9  C   UNL     1       8.708   2.866   0.589  1.00  0.00     0.245 C 
ATOM     10  O   UNL     1       9.234   3.773   1.259  1.00  0.00    -0.273 OA
ATOM     11  H   UNL     1       7.726   2.227  -3.504  1.00  0.00     0.159 HD
ATOM     12  H   UNL     1       9.507   1.900  -3.664  1.00  0.00     0.159 HD
ENDROOT
BRANCH   1  13
ATOM     13  C   UNL     1       8.614   1.622   2.624  1.00  0.00     0.024 C 
ATOM     14  C   UNL     1       7.724   0.823   3.552  1.00  0.00     0.005 C 
ENDBRANCH   1  13
BRANCH   1  15
ATOM     15  C   UNL     1       6.675   1.804   1.045  1.00  0.00     0.065 C 
BRANCH  15  16
ATOM     16  C   UNL     1       5.968   3.037   1.180  1.00  0.00    -0.021 A 
ATOM     17  C   UNL     1       5.827   3.780   2.364  1.00  0.00     0.087 A 
ATOM     18  C   UNL     1       5.280   3.774   0.240  1.00  0.00     0.003 A 
ATOM     19  N   UNL     1       5.113   4.870   2.153  1.00  0.00    -0.361 N 
ATOM     20  C   UNL     1       5.033   3.605  -1.097  1.00  0.00     0.010 A 
ATOM     21  C   UNL     1       4.754   4.909   0.860  1.00  0.00     0.046 A 
ATOM     22  C   UNL     1       4.287   4.535  -1.808  1.00  0.00     0.001 A 
ATOM     23  C   UNL     1       4.013   5.841   0.179  1.00  0.00     0.026 A 
ATOM     24  C   UNL     1       3.774   5.660  -1.164  1.00  0.00     0.002 A 
ATOM     25  H   UNL     1       4.866   5.581   2.858  1.00  0.00     0.166 HD
ENDBRANCH  15  16
ENDBRANCH   1  15
TORSDOF 3
ENDMDL
MODEL 7
REMARK VINA RESULT:      -4.7      2.672      4.892
REMARK SMILES CCC1(Cc2c[nH]c3ccccc23)C(=O)N=C(N)N(C)C1=O
REMARK SMILES IDX 3 1 14 2 15 3 16 4 17 5 18 6 19 7 20 8 21 9 22 10 2 13 1 14
REMARK SMILES IDX 4 15 5 16 6 17 13 18 7 19 12 20 8 21 11 22 9 23 10 24
REMARK H PARENT 18 11 18 12 7 25
ROOT
ATOM      1  C   UNL     1       7.847   3.542   2.463  1.00  0.00     0.134 C 
ATOM      2  C   UNL     1       7.747   3.972   1.055  1.00  0.00     0.264 C 
ATOM      3  O   UNL     1       8.756   4.014   0.285  1.00  0.00    -0.271 OA
ATOM      4  N   UNL     1       6.501   4.360   0.508  1.00  0.00    -0.178 NA
ATOM      5  C   UNL     1       5.567   4.899   1.216  1.00  0.00     0.205 C 
ATOM      6  N   UNL     1       4.312   5.298   0.702  1.00  0.00    -0.369 N 
ATOM      7  N   UNL     1       5.844   5.093   2.598  1.00  0.00    -0.285 N 
ATOM      8  C   UNL     1       4.843   5.700   3.485  1.00  0.00     0.156 C 
ATOM      9  C   UNL     1       7.127   4.684   3.123  1.00  0.00     0.245 C 
ATOM     10  O   UNL     1       7.577   5.302   4.104  1.00  0.00    -0.273 OA
ATOM     11  H   UNL     1       3.502   4.664   0.889  1.00  0.00     0.159 HD
ATOM     12  H   UNL     1       4.187   6.183   0.162  1.00  0.00     0.159 HD
ENDROOT
BRANCH   1  13
ATOM     13  C   UNL     1       9.257   3.613   3.008  1.00  0.00     0.024 C 
ATOM     14  C   UNL     1       9.577   2.466   3.944  1.00  0.00     0.005 C 
ENDBRANCH   1  13
BRANCH   1  15
ATOM     15  C   UNL     1       7.090   2.363   2.841  1.00  0.00     0.065 C 
BRANCH  15  16
ATOM     16  C   UNL     1       6.826   1.240   1.999  1.00  0.00    -0.021 A 
ATOM     17  C   UNL     1       7.719   0.192   1.720  1.00  0.00     0.087 A 
ATOM     18  C   UNL     1       5.695   0.913   1.283  1.00  0.00     0.003 A 
ATOM     19  N   UNL     1       7.170  -0.689   0.904  1.00  0.00    -0.361 N 
ATOM     20  C   UNL     1       4.472   1.511   1.124  1.00  0.00     0.010 A 
ATOM     21  C   UNL     1       5.923  -0.287   0.608  1.00  0.00     0.046 A 
ATOM     22  C   UNL     1       3.497   0.939   0.319  1.00  0.00     0.001 A 
ATOM     23  C   UNL     1       4.977  -0.871  -0.194  1.00  0.00     0.026 A 
ATOM     24  C   UNL     1       3.753  -0.261  -0.345  1.00  0.00     0.002 A 
ATOM     25  H   UNL     1       7.617  -1.547   0.546  1.00  0.00     0.166 HD
ENDBRANCH  15  16
ENDBRANCH   1  15
TORSDOF 3
ENDMDL
MODEL 8
REMARK VINA RESULT:      -4.6      2.066      5.162
REMARK SMILES CCC1(Cc2c[nH]c3ccccc23)C(=O)N=C(N)N(C)C1=O
REMARK SMILES IDX 3 1 14 2 15 3 16 4 17 5 18 6 19 7 20 8 21 9 22 10 2 13 1 14
REMARK SMILES IDX 4 15 5 16 6 17 13 18 7 19 12 20 8 21 11 22 9 23 10 24
REMARK H PARENT 18 11 18 12 7 25
ROOT
ATOM      1  C   UNL     1       6.278   1.191   1.295  1.00  0.00     0.134 C 
ATOM      2  C   UNL     1       5.536   0.055   1.876  1.00  0.00     0.264 C 
ATOM      3  O   UNL     1       4.389  -0.292   1.456  1.00  0.00    -0.271 OA
ATOM      4  N   UNL     1       6.089  -0.697   2.940  1.00  0.00    -0.178 NA
ATOM      5  C   UNL     1       6.892  -0.185   3.810  1.00  0.00     0.205 C 
ATOM      6  N   UNL     1       7.462  -0.907   4.885  1.00  0.00    -0.369 N 
ATOM      7  N   UNL     1       7.209   1.193   3.656  1.00  0.00    -0.285 N 
ATOM      8  C   UNL     1       8.115   1.864   4.597  1.00  0.00     0.156 C 
ATOM      9  C   UNL     1       6.627   1.929   2.556  1.00  0.00     0.245 C 
ATOM     10  O   UNL     1       6.442   3.150   2.708  1.00  0.00    -0.273 OA
ATOM     11  H   UNL     1       8.455  -1.212   4.774  1.00  0.00     0.159 HD
ATOM     12  H   UNL     1       6.926  -1.128   5.753  1.00  0.00     0.159 HD
ENDROOT
BRANCH   1  13
ATOM     13  C   UNL     1       5.395   2.147   0.524  1.00  0.00     0.024 C 
ATOM     14  C   UNL     1       4.806   1.519  -0.721  1.00  0.00     0.005 C 
ENDBRANCH   1  13
BRANCH   1  15
ATOM     15  C   UNL     1       7.557   0.888   0.680  1.00  0.00     0.065 C 
BRANCH  15  16
ATOM     16  C   UNL     1       8.054   1.461  -0.530  1.00  0.00    -0.021 A 
ATOM     17  C   UNL     1       8.275   0.774  -1.736  1.00  0.00     0.087 A 
ATOM     18  C   UNL     1       8.424   2.758  -0.813  1.00  0.00     0.003 A 
ATOM     19  N   UNL     1       8.741   1.591  -2.663  1.00  0.00    -0.361 N 
ATOM     20  C   UNL     1       8.451   3.915  -0.078  1.00  0.00     0.010 A 
ATOM     21  C   UNL     1       8.849   2.823  -2.141  1.00  0.00     0.046 A 
ATOM     22  C   UNL     1       8.885   5.107  -0.640  1.00  0.00     0.001 A 
ATOM     23  C   UNL     1       9.284   3.989  -2.718  1.00  0.00     0.026 A 
ATOM     24  C   UNL     1       9.304   5.143  -1.969  1.00  0.00     0.002 A 
ATOM     25  H   UNL     1       8.985   1.334  -3.632  1.00  0.00     0.166 HD
ENDBRANCH  15  16
ENDBRANCH   1  15
TORSDOF 3
ENDMDL
MODEL 9
REMARK VINA RESULT:      -4.6      1.571      2.105
REMARK SMILES CCC1(Cc2c[nH]c3ccccc23)C(=O)N=C(N)N(C)C1=O
REMARK SMILES IDX 3 1 14 2 15 3 16 4 17 5 18 6 19 7 20 8 21 9 22 10 2 13 1 14
REMARK SMILES IDX 4 15 5 16 6 17 13 18 7 19 12 20 8 21 11 22 9 23 10 24
REMARK H PARENT 18 11 18 12 7 25
ROOT
ATOM      1  C   UNL     1       5.893   1.551  -0.117  1.00  0.00     0.134 C 
ATOM      2  C   UNL     1       5.081   2.499  -0.903  1.00  0.00     0.264 C 
ATOM      3  O   UNL     1       4.159   2.115  -1.688  1.00  0.00    -0.271 OA
ATOM      4  N   UNL     1       5.307   3.893  -0.807  1.00  0.00    -0.178 NA
ATOM      5  C   UNL     1       6.468   4.393  -0.549  1.00  0.00     0.205 C 
ATOM      6  N   UNL     1       6.730   5.779  -0.447  1.00  0.00    -0.369 N 
ATOM      7  N   UNL     1       7.534   3.471  -0.360  1.00  0.00    -0.285 N 
ATOM      8  C   UNL     1       8.892   3.945  -0.061  1.00  0.00     0.156 C 
ATOM      9  C   UNL     1       7.265   2.054  -0.463  1.00  0.00     0.245 C 
ATOM     10  O   UNL     1       8.192   1.313  -0.838  1.00  0.00    -0.273 OA
ATOM     11  H   UNL     1       6.816   6.173   0.518  1.00  0.00     0.159 HD
ATOM     12  H   UNL     1       6.836   6.389  -1.287  1.00  0.00     0.159 HD
ENDROOT
BRANCH   1  13
ATOM     13  C   UNL     1       5.854   0.140  -0.661  1.00  0.00     0.024 C 
ATOM     14  C   UNL     1       4.823  -0.723   0.033  1.00  0.00     0.005 C 
ENDBRANCH   1  13
BRANCH   1  15
ATOM     15  C   UNL     1       5.814   1.665   1.328  1.00  0.00     0.065 C 
BRANCH  15  16
ATOM     16  C   UNL     1       6.915   1.567   2.231  1.00  0.00    -0.021 A 
ATOM     17  C   UNL     1       7.400   2.599   3.053  1.00  0.00     0.087 A 
ATOM     18  C   UNL     1       7.741   0.500   2.513  1.00  0.00     0.003 A 
ATOM     19  N   UNL     1       8.431   2.185   3.767  1.00  0.00    -0.361 N 
ATOM     20  C   UNL     1       7.805  -0.791   2.057  1.00  0.00     0.010 A 
ATOM     21  C   UNL     1       8.677   0.899   3.469  1.00  0.00     0.046 A 
ATOM     22  C   UNL     1       8.770  -1.667   2.533  1.00  0.00     0.001 A 
ATOM     23  C   UNL     1       9.640   0.051   3.953  1.00  0.00     0.026 A 
ATOM     24  C   UNL     1       9.694  -1.242   3.487  1.00  0.00     0.002 A 
ATOM     25  H   UNL     1       8.966   2.749   4.445  1.00  0.00     0.166 HD
ENDBRANCH  15  16
ENDBRANCH   1  15
TORSDOF 3
ENDMDL
