MODEL 1
REMARK VINA RESULT:       8.2      0.000      0.000
REMARK SMILES O=C(c1cscn1)N1CCC2(CC1)COC(COc1ccccn1)C2
REMARK SMILES IDX 17 1 16 2 2 3 8 4 9 5 13 6 10 7 12 8 11 9 14 10 25 11 15 12
REMARK SMILES IDX 1 13 3 14 4 15 7 16 5 17 6 18 18 19 19 20 20 21 24 22 21 23
REMARK SMILES IDX 23 24 22 25
REMARK H PARENT
ROOT
ATOM      1  C   UNL     1       8.533   4.016  -2.579  1.00  0.00     0.263 C 
ENDROOT
BRANCH   1   2
ATOM      2  C   UNL     1       8.718   3.115  -1.401  1.00  0.00     0.156 C 
ATOM      3  C   UNL     1       8.057   0.244   4.192  1.00  0.00     0.273 C 
ATOM      4  N   UNL     1       8.387   1.217   3.208  1.00  0.00    -0.337 N 
ATOM      5  C   UNL     1       7.843   2.552   3.289  1.00  0.00     0.120 C 
ATOM      6  C   UNL     1       9.267   0.922   2.095  1.00  0.00     0.120 C 
ATOM      7  C   UNL     1       7.289   3.026   1.969  1.00  0.00     0.031 C 
ATOM      8  C   UNL     1       9.467   2.150   1.252  1.00  0.00     0.031 C 
ATOM      9  C   UNL     1       8.114   2.639   0.799  1.00  0.00    -0.000 C 
ATOM     10  C   UNL     1       7.460   1.695  -0.178  1.00  0.00     0.168 C 
ATOM     11  C   UNL     1       8.328   3.834  -0.102  1.00  0.00     0.045 C 
ATOM     12  O   UNL     1       8.029   1.946  -1.416  1.00  0.00    -0.374 OA
ATOM     13  O   UNL     1       7.288   0.567   5.134  1.00  0.00    -0.267 OA
BRANCH   3  14
ATOM     14  C   UNL     1       8.612  -1.123   4.099  1.00  0.00     0.139 A 
ATOM     15  C   UNL     1       8.548  -2.004   5.208  1.00  0.00     0.100 A 
ATOM     16  N   UNL     1       9.176  -1.624   3.055  1.00  0.00    -0.240 NA
ATOM     17  S   UNL     1       9.338  -3.521   4.615  1.00  0.00    -0.130 S 
ATOM     18  C   UNL     1       9.654  -2.746   2.912  1.00  0.00     0.176 A 
ENDBRANCH   3  14
ENDBRANCH   1   2
BRANCH   1  19
ATOM     19  O   UNL     1       7.347   3.794  -3.239  1.00  0.00    -0.475 OA
BRANCH  19  20
ATOM     20  C   UNL     1       6.070   3.988  -2.784  1.00  0.00     0.213 A 
ATOM     21  C   UNL     1       5.498   5.237  -3.036  1.00  0.00     0.068 A 
ATOM     22  N   UNL     1       5.317   3.115  -2.127  1.00  0.00    -0.222 NA
ATOM     23  C   UNL     1       4.217   5.547  -2.624  1.00  0.00     0.007 A 
ATOM     24  C   UNL     1       4.083   3.383  -1.718  1.00  0.00     0.115 A 
ATOM     25  C   UNL     1       3.481   4.601  -1.946  1.00  0.00     0.020 A 
ENDBRANCH  19  20
ENDBRANCH   1  19
TORSDOF 4
ENDMDL
MODEL 2
REMARK VINA RESULT:       9.5      3.764      7.723
REMARK SMILES O=C(c1cscn1)N1CCC2(CC1)COC(COc1ccccn1)C2
REMARK SMILES IDX 17 1 16 2 2 3 8 4 9 5 13 6 10 7 12 8 11 9 14 10 25 11 15 12
REMARK SMILES IDX 1 13 3 14 4 15 7 16 5 17 6 18 18 19 19 20 20 21 24 22 21 23
REMARK SMILES IDX 23 24 22 25
REMARK H PARENT
ROOT
ATOM      1  C   UNL     1       3.865   0.205   1.941  1.00  0.00     0.263 C 
ENDROOT
BRANCH   1   2
ATOM      2  C   UNL     1       4.894   0.875   1.089  1.00  0.00     0.156 C 
ATOM      3  C   UNL     1       9.224   2.088  -3.354  1.00  0.00     0.273 C 
ATOM      4  N   UNL     1       8.610   1.584  -2.174  1.00  0.00    -0.337 N 
ATOM      5  C   UNL     1       8.570   0.162  -1.921  1.00  0.00     0.120 C 
ATOM      6  C   UNL     1       8.001   2.454  -1.188  1.00  0.00     0.120 C 
ATOM      7  C   UNL     1       7.200  -0.305  -1.498  1.00  0.00     0.031 C 
ATOM      8  C   UNL     1       7.478   1.645  -0.035  1.00  0.00     0.031 C 
ATOM      9  C   UNL     1       6.508   0.624  -0.574  1.00  0.00    -0.000 C 
ATOM     10  C   UNL     1       5.247   1.256  -1.107  1.00  0.00     0.168 C 
ATOM     11  C   UNL     1       5.936  -0.141   0.598  1.00  0.00     0.045 C 
ATOM     12  O   UNL     1       4.443   1.528  -0.012  1.00  0.00    -0.374 OA
ATOM     13  O   UNL     1       9.735   1.277  -4.169  1.00  0.00    -0.267 OA
BRANCH   3  14
ATOM     14  C   UNL     1       9.255   3.544  -3.611  1.00  0.00     0.139 A 
ATOM     15  C   UNL     1       9.737   4.048  -4.845  1.00  0.00     0.100 A 
ATOM     16  N   UNL     1       8.864   4.450  -2.783  1.00  0.00    -0.240 NA
ATOM     17  S   UNL     1       9.575   5.843  -4.683  1.00  0.00    -0.130 S 
ATOM     18  C   UNL     1       8.862   5.669  -2.934  1.00  0.00     0.176 A 
ENDBRANCH   3  14
ENDBRANCH   1   2
BRANCH   1  19
ATOM     19  O   UNL     1       4.388  -0.304   3.107  1.00  0.00    -0.475 OA
BRANCH  19  20
ATOM     20  C   UNL     1       5.650  -0.783   3.336  1.00  0.00     0.213 A 
ATOM     21  C   UNL     1       6.134  -1.731   2.432  1.00  0.00     0.068 A 
ATOM     22  N   UNL     1       6.463  -0.441   4.327  1.00  0.00    -0.222 NA
ATOM     23  C   UNL     1       7.392  -2.284   2.563  1.00  0.00     0.007 A 
ATOM     24  C   UNL     1       7.678  -0.956   4.480  1.00  0.00     0.115 A 
ATOM     25  C   UNL     1       8.194  -1.893   3.612  1.00  0.00     0.020 A 
ENDBRANCH  19  20
ENDBRANCH   1  19
TORSDOF 4
ENDMDL
MODEL 3
REMARK VINA RESULT:      11.2      2.456      3.452
REMARK SMILES O=C(c1cscn1)N1CCC2(CC1)COC(COc1ccccn1)C2
REMARK SMILES IDX 17 1 16 2 2 3 8 4 9 5 13 6 10 7 12 8 11 9 14 10 25 11 15 12
REMARK SMILES IDX 1 13 3 14 4 15 7 16 5 17 6 18 18 19 19 20 20 21 24 22 21 23
REMARK SMILES IDX 23 24 22 25
REMARK H PARENT
ROOT
ATOM      1  C   UNL     1       2.245   1.520  -1.656  1.00  0.00     0.263 C 
ENDROOT
BRANCH   1   2
ATOM      2  C   UNL     1       3.516   1.034  -1.038  1.00  0.00     0.156 C 
ATOM      3  C   UNL     1       9.044   0.747   2.015  1.00  0.00     0.273 C 
ATOM      4  N   UNL     1       8.076   0.991   1.001  1.00  0.00    -0.337 N 
ATOM      5  C   UNL     1       7.891   2.322   0.473  1.00  0.00     0.120 C 
ATOM      6  C   UNL     1       7.242  -0.063   0.460  1.00  0.00     0.120 C 
ATOM      7  C   UNL     1       6.435   2.711   0.399  1.00  0.00     0.031 C 
ATOM      8  C   UNL     1       6.354   0.482  -0.623  1.00  0.00     0.031 C 
ATOM      9  C   UNL     1       5.543   1.615  -0.045  1.00  0.00    -0.000 C 
ATOM     10  C   UNL     1       4.536   1.139   0.972  1.00  0.00     0.168 C 
ATOM     11  C   UNL     1       4.605   2.113  -1.121  1.00  0.00     0.045 C 
ATOM     12  O   UNL     1       3.452   0.649   0.261  1.00  0.00    -0.374 OA
ATOM     13  O   UNL     1       9.737   1.708   2.439  1.00  0.00    -0.267 OA
BRANCH   3  14
ATOM     14  C   UNL     1       9.223  -0.617   2.557  1.00  0.00     0.139 A 
ATOM     15  C   UNL     1       9.356  -1.727   1.685  1.00  0.00     0.100 A 
ATOM     16  N   UNL     1       9.278  -0.915   3.808  1.00  0.00    -0.240 NA
ATOM     17  S   UNL     1       9.550  -3.142   2.797  1.00  0.00    -0.130 S 
ATOM     18  C   UNL     1       9.425  -2.021   4.322  1.00  0.00     0.176 A 
ENDBRANCH   3  14
ENDBRANCH   1   2
BRANCH   1  19
ATOM     19  O   UNL     1       2.020   2.858  -1.430  1.00  0.00    -0.475 OA
BRANCH  19  20
ATOM     20  C   UNL     1       2.924   3.827  -1.086  1.00  0.00     0.213 A 
ATOM     21  C   UNL     1       3.541   4.509  -2.136  1.00  0.00     0.068 A 
ATOM     22  N   UNL     1       3.276   4.189   0.141  1.00  0.00    -0.222 NA
ATOM     23  C   UNL     1       4.470   5.506  -1.912  1.00  0.00     0.007 A 
ATOM     24  C   UNL     1       4.166   5.142   0.390  1.00  0.00     0.115 A 
ATOM     25  C   UNL     1       4.798   5.839  -0.616  1.00  0.00     0.020 A 
ENDBRANCH  19  20
ENDBRANCH   1  19
TORSDOF 4
ENDMDL
