MODEL 1
REMARK VINA RESULT:      -1.9      0.000      0.000
REMARK SMILES COC(=O)c1ccc(NC(=O)NC(=N)N)cc1O
REMARK SMILES IDX 5 1 6 2 7 3 8 4 16 5 17 6 3 7 4 8 2 9 1 10 18 11 9 13 10 14
REMARK SMILES IDX 12 15 13 16 15 17 11 19 14 23
REMARK H PARENT 18 12 9 18 12 20 15 21 15 22 14 24
ROOT
ATOM      1  C   UNL     1       5.640   3.162  -0.880  1.00  0.00     0.101 A 
ATOM      2  C   UNL     1       4.912   2.311  -0.078  1.00  0.00     0.022 A 
ATOM      3  C   UNL     1       5.501   1.238   0.564  1.00  0.00     0.027 A 
ATOM      4  C   UNL     1       6.857   0.953   0.438  1.00  0.00     0.046 A 
ATOM      5  C   UNL     1       7.573   1.804  -0.363  1.00  0.00     0.073 A 
ATOM      6  C   UNL     1       6.984   2.895  -1.016  1.00  0.00     0.132 A 
ENDROOT
BRANCH   1   7
ATOM      7  C   UNL     1       5.064   4.300  -1.571  1.00  0.00     0.341 C 
ATOM      8  O   UNL     1       5.213   4.374  -2.813  1.00  0.00    -0.246 OA
BRANCH   7   9
ATOM      9  O   UNL     1       4.366   5.291  -0.914  1.00  0.00    -0.465 OA
ATOM     10  C   UNL     1       3.027   5.573  -1.311  1.00  0.00     0.282 C 
ENDBRANCH   7   9
ENDBRANCH   1   7
BRANCH   6  11
ATOM     11  O   UNL     1       7.773   3.727  -1.820  1.00  0.00    -0.507 OA
ATOM     12  H   UNL     1       8.284   3.377  -2.613  1.00  0.00     0.293 HD
ENDBRANCH   6  11
BRANCH   4  13
ATOM     13  N   UNL     1       7.359  -0.157   1.127  1.00  0.00    -0.308 N 
ATOM     14  C   UNL     1       8.126  -0.163   2.300  1.00  0.00     0.325 C 
ATOM     15  N   UNL     1       8.559  -1.385   2.875  1.00  0.00    -0.278 N 
ATOM     16  C   UNL     1       9.335  -1.425   4.059  1.00  0.00     0.193 C 
ATOM     17  N   UNL     1       9.701  -2.735   4.526  1.00  0.00    -0.370 N 
ATOM     18  H   UNL     1       7.136  -1.120   0.720  1.00  0.00     0.171 HD
ATOM     19  O   UNL     1       8.437   0.910   2.849  1.00  0.00    -0.248 OA
ATOM     20  H   UNL     1       8.290  -2.301   2.403  1.00  0.00     0.174 HD
ATOM     21  H   UNL     1       9.954  -2.912   5.526  1.00  0.00     0.159 HD
ATOM     22  H   UNL     1       9.729  -3.566   3.897  1.00  0.00     0.159 HD
BRANCH  16  23
ATOM     23  N   UNL     1       9.734  -0.445   4.737  1.00  0.00    -0.269 NA
ATOM     24  H   UNL     1       9.722  -0.305   5.725  1.00  0.00     0.191 HD
ENDBRANCH  16  23
ENDBRANCH   4  13
TORSDOF 5
ENDMDL
MODEL 2
REMARK VINA RESULT:      -1.9      3.385      7.477
REMARK SMILES COC(=O)c1ccc(NC(=O)NC(=N)N)cc1O
REMARK SMILES IDX 5 1 6 2 7 3 8 4 16 5 17 6 3 7 4 8 2 9 1 10 18 11 9 13 10 14
REMARK SMILES IDX 12 15 13 16 15 17 11 19 14 23
REMARK H PARENT 18 12 9 18 12 20 15 21 15 22 14 24
ROOT
ATOM      1  C   UNL     1       7.987  -0.689   2.947  1.00  0.00     0.101 A 
ATOM      2  C   UNL     1       8.595  -0.203   1.811  1.00  0.00     0.022 A 
ATOM      3  C   UNL     1       7.946   0.668   0.957  1.00  0.00     0.027 A 
ATOM      4  C   UNL     1       6.646   1.105   1.191  1.00  0.00     0.046 A 
ATOM      5  C   UNL     1       6.048   0.615   2.324  1.00  0.00     0.073 A 
ATOM      6  C   UNL     1       6.699  -0.268   3.195  1.00  0.00     0.132 A 
ENDROOT
BRANCH   1   7
ATOM      7  C   UNL     1       8.629  -1.604   3.871  1.00  0.00     0.341 C 
ATOM      8  O   UNL     1       8.455  -1.423   5.099  1.00  0.00    -0.246 OA
BRANCH   7   9
ATOM      9  O   UNL     1       9.416  -2.655   3.448  1.00  0.00    -0.465 OA
ATOM     10  C   UNL     1       9.726  -2.772   2.062  1.00  0.00     0.282 C 
ENDBRANCH   7   9
ENDBRANCH   1   7
BRANCH   6  11
ATOM     11  O   UNL     1       6.031  -0.730   4.336  1.00  0.00    -0.507 OA
ATOM     12  H   UNL     1       5.158  -1.228   4.279  1.00  0.00     0.293 HD
ENDBRANCH   6  11
BRANCH   4  13
ATOM     13  N   UNL     1       6.076   1.987   0.266  1.00  0.00    -0.308 N 
ATOM     14  C   UNL     1       5.370   3.168   0.532  1.00  0.00     0.325 C 
ATOM     15  N   UNL     1       4.852   3.955  -0.529  1.00  0.00    -0.278 N 
ATOM     16  C   UNL     1       4.135   5.154  -0.293  1.00  0.00     0.193 C 
ATOM     17  N   UNL     1       3.670   5.847  -1.465  1.00  0.00    -0.370 N 
ATOM     18  H   UNL     1       6.185   1.741  -0.768  1.00  0.00     0.171 HD
ATOM     19  O   UNL     1       5.191   3.539   1.707  1.00  0.00    -0.248 OA
ATOM     20  H   UNL     1       5.009   3.635  -1.532  1.00  0.00     0.174 HD
ATOM     21  H   UNL     1       3.451   6.869  -1.448  1.00  0.00     0.159 HD
ATOM     22  H   UNL     1       3.532   5.368  -2.380  1.00  0.00     0.159 HD
BRANCH  16  23
ATOM     23  N   UNL     1       3.866   5.670   0.820  1.00  0.00    -0.269 NA
ATOM     24  H   UNL     1       3.568   6.597   1.039  1.00  0.00     0.191 HD
ENDBRANCH  16  23
ENDBRANCH   4  13
TORSDOF 5
ENDMDL
MODEL 3
REMARK VINA RESULT:      -1.7      3.266      7.426
REMARK SMILES COC(=O)c1ccc(NC(=O)NC(=N)N)cc1O
REMARK SMILES IDX 5 1 6 2 7 3 8 4 16 5 17 6 3 7 4 8 2 9 1 10 18 11 9 13 10 14
REMARK SMILES IDX 12 15 13 16 15 17 11 19 14 23
REMARK H PARENT 18 12 9 18 12 20 15 21 15 22 14 24
ROOT
ATOM      1  C   UNL     1       7.793  -0.916   2.197  1.00  0.00     0.101 A 
ATOM      2  C   UNL     1       7.963  -0.323   0.966  1.00  0.00     0.022 A 
ATOM      3  C   UNL     1       7.053   0.592   0.470  1.00  0.00     0.027 A 
ATOM      4  C   UNL     1       5.917   0.966   1.180  1.00  0.00     0.046 A 
ATOM      5  C   UNL     1       5.756   0.369   2.404  1.00  0.00     0.073 A 
ATOM      6  C   UNL     1       6.673  -0.558   2.914  1.00  0.00     0.132 A 
ENDROOT
BRANCH   1   7
ATOM      7  C   UNL     1       8.722  -1.880   2.756  1.00  0.00     0.341 C 
ATOM      8  O   UNL     1       9.528  -2.443   1.980  1.00  0.00    -0.246 OA
BRANCH   7   9
ATOM      9  O   UNL     1       8.746  -2.193   4.099  1.00  0.00    -0.465 OA
ATOM     10  C   UNL     1       9.627  -1.477   4.960  1.00  0.00     0.282 C 
ENDBRANCH   7   9
ENDBRANCH   1   7
BRANCH   6  11
ATOM     11  O   UNL     1       6.450  -1.131   4.173  1.00  0.00    -0.507 OA
ATOM     12  H   UNL     1       7.060  -0.959   4.954  1.00  0.00     0.293 HD
ENDBRANCH   6  11
BRANCH   4  13
ATOM     13  N   UNL     1       5.055   1.899   0.592  1.00  0.00    -0.308 N 
ATOM     14  C   UNL     1       5.403   3.039  -0.145  1.00  0.00     0.325 C 
ATOM     15  N   UNL     1       4.399   3.889  -0.678  1.00  0.00    -0.278 N 
ATOM     16  C   UNL     1       4.717   5.048  -1.427  1.00  0.00     0.193 C 
ATOM     17  N   UNL     1       3.596   5.814  -1.904  1.00  0.00    -0.370 N 
ATOM     18  H   UNL     1       4.007   1.733   0.713  1.00  0.00     0.171 HD
ATOM     19  O   UNL     1       6.600   3.318  -0.340  1.00  0.00    -0.248 OA
ATOM     20  H   UNL     1       3.376   3.647  -0.509  1.00  0.00     0.174 HD
ATOM     21  H   UNL     1       3.679   6.457  -2.724  1.00  0.00     0.159 HD
ATOM     22  H   UNL     1       2.654   5.764  -1.459  1.00  0.00     0.159 HD
BRANCH  16  23
ATOM     23  N   UNL     1       5.863   5.473  -1.716  1.00  0.00    -0.269 NA
ATOM     24  H   UNL     1       6.132   6.273  -2.249  1.00  0.00     0.191 HD
ENDBRANCH  16  23
ENDBRANCH   4  13
TORSDOF 5
ENDMDL
MODEL 4
REMARK VINA RESULT:      -1.6      1.349      2.151
REMARK SMILES COC(=O)c1ccc(NC(=O)NC(=N)N)cc1O
REMARK SMILES IDX 5 1 6 2 7 3 8 4 16 5 17 6 3 7 4 8 2 9 1 10 18 11 9 13 10 14
REMARK SMILES IDX 12 15 13 16 15 17 11 19 14 23
REMARK H PARENT 18 12 9 18 12 20 15 21 15 22 14 24
ROOT
ATOM      1  C   UNL     1       5.288   3.815  -0.680  1.00  0.00     0.101 A 
ATOM      2  C   UNL     1       5.972   2.685  -1.067  1.00  0.00     0.022 A 
ATOM      3  C   UNL     1       6.266   1.673  -0.173  1.00  0.00     0.027 A 
ATOM      4  C   UNL     1       5.891   1.734   1.165  1.00  0.00     0.046 A 
ATOM      5  C   UNL     1       5.211   2.864   1.542  1.00  0.00     0.073 A 
ATOM      6  C   UNL     1       4.909   3.894   0.643  1.00  0.00     0.132 A 
ENDROOT
BRANCH   1   7
ATOM      7  C   UNL     1       4.957   4.901  -1.583  1.00  0.00     0.341 C 
ATOM      8  O   UNL     1       3.757   5.249  -1.674  1.00  0.00    -0.246 OA
BRANCH   7   9
ATOM      9  O   UNL     1       5.910   5.556  -2.336  1.00  0.00    -0.465 OA
ATOM     10  C   UNL     1       7.177   5.842  -1.750  1.00  0.00     0.282 C 
ENDBRANCH   7   9
ENDBRANCH   1   7
BRANCH   6  11
ATOM     11  O   UNL     1       4.210   5.021   1.093  1.00  0.00    -0.507 OA
ATOM     12  H   UNL     1       4.629   5.701   1.704  1.00  0.00     0.293 HD
ENDBRANCH   6  11
BRANCH   4  13
ATOM     13  N   UNL     1       6.237   0.659   1.992  1.00  0.00    -0.308 N 
ATOM     14  C   UNL     1       7.370   0.535   2.807  1.00  0.00     0.325 C 
ATOM     15  N   UNL     1       7.572  -0.631   3.590  1.00  0.00    -0.278 N 
ATOM     16  C   UNL     1       8.707  -0.788   4.424  1.00  0.00     0.193 C 
ATOM     17  N   UNL     1       8.779  -2.022   5.159  1.00  0.00    -0.370 N 
ATOM     18  H   UNL     1       5.564  -0.171   2.011  1.00  0.00     0.171 HD
ATOM     19  O   UNL     1       8.212   1.450   2.851  1.00  0.00    -0.248 OA
ATOM     20  H   UNL     1       6.849  -1.411   3.549  1.00  0.00     0.174 HD
ATOM     21  H   UNL     1       9.348  -2.109   6.033  1.00  0.00     0.159 HD
ATOM     22  H   UNL     1       8.272  -2.882   4.860  1.00  0.00     0.159 HD
BRANCH  16  23
ATOM     23  N   UNL     1       9.646   0.030   4.587  1.00  0.00    -0.269 NA
ATOM     24  H   UNL     1      10.628  -0.131   4.661  1.00  0.00     0.191 HD
ENDBRANCH  16  23
ENDBRANCH   4  13
TORSDOF 5
ENDMDL
MODEL 5
REMARK VINA RESULT:      -1.4      1.218      1.887
REMARK SMILES COC(=O)c1ccc(NC(=O)NC(=N)N)cc1O
REMARK SMILES IDX 5 1 6 2 7 3 8 4 16 5 17 6 3 7 4 8 2 9 1 10 18 11 9 13 10 14
REMARK SMILES IDX 12 15 13 16 15 17 11 19 14 23
REMARK H PARENT 18 12 9 18 12 20 15 21 15 22 14 24
ROOT
ATOM      1  C   UNL     1       5.941   2.752  -1.344  1.00  0.00     0.101 A 
ATOM      2  C   UNL     1       7.294   2.504  -1.399  1.00  0.00     0.022 A 
ATOM      3  C   UNL     1       7.864   1.439  -0.729  1.00  0.00     0.027 A 
ATOM      4  C   UNL     1       7.110   0.557   0.039  1.00  0.00     0.046 A 
ATOM      5  C   UNL     1       5.764   0.812   0.089  1.00  0.00     0.073 A 
ATOM      6  C   UNL     1       5.178   1.889  -0.588  1.00  0.00     0.132 A 
ENDROOT
BRANCH   1   7
ATOM      7  C   UNL     1       5.299   3.857  -2.031  1.00  0.00     0.341 C 
ATOM      8  O   UNL     1       4.450   3.591  -2.913  1.00  0.00    -0.246 OA
BRANCH   7   9
ATOM      9  O   UNL     1       5.591   5.175  -1.750  1.00  0.00    -0.465 OA
ATOM     10  C   UNL     1       6.194   5.498  -0.500  1.00  0.00     0.282 C 
ENDBRANCH   7   9
ENDBRANCH   1   7
BRANCH   6  11
ATOM     11  O   UNL     1       3.795   2.094  -0.496  1.00  0.00    -0.507 OA
ATOM     12  H   UNL     1       3.134   1.349  -0.643  1.00  0.00     0.293 HD
ENDBRANCH   6  11
BRANCH   4  13
ATOM     13  N   UNL     1       7.781  -0.490   0.681  1.00  0.00    -0.308 N 
ATOM     14  C   UNL     1       8.012  -0.645   2.055  1.00  0.00     0.325 C 
ATOM     15  N   UNL     1       8.715  -1.775   2.546  1.00  0.00    -0.278 N 
ATOM     16  C   UNL     1       8.966  -1.961   3.928  1.00  0.00     0.193 C 
ATOM     17  N   UNL     1       9.689  -3.154   4.279  1.00  0.00    -0.370 N 
ATOM     18  H   UNL     1       8.165  -1.271   0.060  1.00  0.00     0.171 HD
ATOM     19  O   UNL     1       7.603   0.212   2.858  1.00  0.00    -0.248 OA
ATOM     20  H   UNL     1       9.063  -2.506   1.855  1.00  0.00     0.174 HD
ATOM     21  H   UNL     1       9.633  -3.568   5.238  1.00  0.00     0.159 HD
ATOM     22  H   UNL     1      10.299  -3.658   3.601  1.00  0.00     0.159 HD
BRANCH  16  23
ATOM     23  N   UNL     1       8.626  -1.201   4.868  1.00  0.00    -0.269 NA
ATOM     24  H   UNL     1       8.693  -1.336   5.855  1.00  0.00     0.191 HD
ENDBRANCH  16  23
ENDBRANCH   4  13
TORSDOF 5
ENDMDL
MODEL 6
REMARK VINA RESULT:      -1.1      1.218      1.681
REMARK SMILES COC(=O)c1ccc(NC(=O)NC(=N)N)cc1O
REMARK SMILES IDX 5 1 6 2 7 3 8 4 16 5 17 6 3 7 4 8 2 9 1 10 18 11 9 13 10 14
REMARK SMILES IDX 12 15 13 16 15 17 11 19 14 23
REMARK H PARENT 18 12 9 18 12 20 15 21 15 22 14 24
ROOT
ATOM      1  C   UNL     1       5.144   2.763  -0.945  1.00  0.00     0.101 A 
ATOM      2  C   UNL     1       6.144   3.002  -0.029  1.00  0.00     0.022 A 
ATOM      3  C   UNL     1       6.625   2.005   0.797  1.00  0.00     0.027 A 
ATOM      4  C   UNL     1       6.132   0.705   0.754  1.00  0.00     0.046 A 
ATOM      5  C   UNL     1       5.136   0.475  -0.160  1.00  0.00     0.073 A 
ATOM      6  C   UNL     1       4.643   1.481  -1.002  1.00  0.00     0.132 A 
ENDROOT
BRANCH   1   7
ATOM      7  C   UNL     1       4.609   3.778  -1.832  1.00  0.00     0.341 C 
ATOM      8  O   UNL     1       4.419   3.474  -3.032  1.00  0.00    -0.246 OA
BRANCH   7   9
ATOM      9  O   UNL     1       4.306   5.053  -1.402  1.00  0.00    -0.465 OA
ATOM     10  C   UNL     1       3.172   5.248  -0.562  1.00  0.00     0.282 C 
ENDBRANCH   7   9
ENDBRANCH   1   7
BRANCH   6  11
ATOM     11  O   UNL     1       3.625   1.179  -1.915  1.00  0.00    -0.507 OA
ATOM     12  H   UNL     1       2.868   1.816  -2.100  1.00  0.00     0.293 HD
ENDBRANCH   6  11
BRANCH   4  13
ATOM     13  N   UNL     1       6.685  -0.234   1.633  1.00  0.00    -0.308 N 
ATOM     14  C   UNL     1       7.631  -0.010   2.641  1.00  0.00     0.325 C 
ATOM     15  N   UNL     1       8.092  -1.080   3.451  1.00  0.00    -0.278 N 
ATOM     16  C   UNL     1       9.048  -0.887   4.479  1.00  0.00     0.193 C 
ATOM     17  N   UNL     1       9.421  -2.063   5.218  1.00  0.00    -0.370 N 
ATOM     18  H   UNL     1       6.353  -1.245   1.532  1.00  0.00     0.171 HD
ATOM     19  O   UNL     1       8.079   1.135   2.836  1.00  0.00    -0.248 OA
ATOM     20  H   UNL     1       7.706  -2.058   3.282  1.00  0.00     0.174 HD
ATOM     21  H   UNL     1       9.825  -2.001   6.181  1.00  0.00     0.159 HD
ATOM     22  H   UNL     1       9.306  -3.025   4.834  1.00  0.00     0.159 HD
BRANCH  16  23
ATOM     23  N   UNL     1       9.598   0.193   4.808  1.00  0.00    -0.269 NA
ATOM     24  H   UNL     1      10.107   0.425   5.634  1.00  0.00     0.191 HD
ENDBRANCH  16  23
ENDBRANCH   4  13
TORSDOF 5
ENDMDL
MODEL 7
REMARK VINA RESULT:      -0.8      1.832      2.183
REMARK SMILES COC(=O)c1ccc(NC(=O)NC(=N)N)cc1O
REMARK SMILES IDX 5 1 6 2 7 3 8 4 16 5 17 6 3 7 4 8 2 9 1 10 18 11 9 13 10 14
REMARK SMILES IDX 12 15 13 16 15 17 11 19 14 23
REMARK H PARENT 18 12 9 18 12 20 15 21 15 22 14 24
ROOT
ATOM      1  C   UNL     1       4.879   4.564  -0.031  1.00  0.00     0.101 A 
ATOM      2  C   UNL     1       4.728   4.760   1.324  1.00  0.00     0.022 A 
ATOM      3  C   UNL     1       5.451   4.030   2.248  1.00  0.00     0.027 A 
ATOM      4  C   UNL     1       6.370   3.057   1.868  1.00  0.00     0.046 A 
ATOM      5  C   UNL     1       6.513   2.868   0.517  1.00  0.00     0.073 A 
ATOM      6  C   UNL     1       5.785   3.604  -0.426  1.00  0.00     0.132 A 
ENDROOT
BRANCH   1   7
ATOM      7  C   UNL     1       4.141   5.307  -1.035  1.00  0.00     0.341 C 
ATOM      8  O   UNL     1       3.061   5.845  -0.698  1.00  0.00    -0.246 OA
BRANCH   7   9
ATOM      9  O   UNL     1       4.585   5.439  -2.334  1.00  0.00    -0.465 OA
ATOM     10  C   UNL     1       3.657   5.820  -3.346  1.00  0.00     0.282 C 
ENDBRANCH   7   9
ENDBRANCH   1   7
BRANCH   6  11
ATOM     11  O   UNL     1       5.979   3.362  -1.792  1.00  0.00    -0.507 OA
ATOM     12  H   UNL     1       5.736   2.484  -2.218  1.00  0.00     0.293 HD
ENDBRANCH   6  11
BRANCH   4  13
ATOM     13  N   UNL     1       7.053   2.371   2.878  1.00  0.00    -0.308 N 
ATOM     14  C   UNL     1       7.512   1.047   2.856  1.00  0.00     0.325 C 
ATOM     15  N   UNL     1       8.192   0.499   3.974  1.00  0.00    -0.278 N 
ATOM     16  C   UNL     1       8.668  -0.836   3.983  1.00  0.00     0.193 C 
ATOM     17  N   UNL     1       9.339  -1.254   5.184  1.00  0.00    -0.370 N 
ATOM     18  H   UNL     1       7.254   2.911   3.779  1.00  0.00     0.171 HD
ATOM     19  O   UNL     1       7.324   0.337   1.851  1.00  0.00    -0.248 OA
ATOM     20  H   UNL     1       8.350   1.109   4.831  1.00  0.00     0.174 HD
ATOM     21  H   UNL     1      10.014  -2.053   5.186  1.00  0.00     0.159 HD
ATOM     22  H   UNL     1       9.187  -0.785   6.102  1.00  0.00     0.159 HD
BRANCH  16  23
ATOM     23  N   UNL     1       8.566  -1.683   3.060  1.00  0.00    -0.269 NA
ATOM     24  H   UNL     1       9.149  -1.835   2.266  1.00  0.00     0.191 HD
ENDBRANCH  16  23
ENDBRANCH   4  13
TORSDOF 5
ENDMDL
MODEL 8
REMARK VINA RESULT:      -0.2      1.269      1.714
REMARK SMILES COC(=O)c1ccc(NC(=O)NC(=N)N)cc1O
REMARK SMILES IDX 5 1 6 2 7 3 8 4 16 5 17 6 3 7 4 8 2 9 1 10 18 11 9 13 10 14
REMARK SMILES IDX 12 15 13 16 15 17 11 19 14 23
REMARK H PARENT 18 12 9 18 12 20 15 21 15 22 14 24
ROOT
ATOM      1  C   UNL     1       5.257   3.896  -0.979  1.00  0.00     0.101 A 
ATOM      2  C   UNL     1       6.352   3.840  -0.146  1.00  0.00     0.022 A 
ATOM      3  C   UNL     1       6.818   2.641   0.360  1.00  0.00     0.027 A 
ATOM      4  C   UNL     1       6.212   1.425   0.061  1.00  0.00     0.046 A 
ATOM      5  C   UNL     1       5.122   1.490  -0.769  1.00  0.00     0.073 A 
ATOM      6  C   UNL     1       4.644   2.701  -1.286  1.00  0.00     0.132 A 
ENDROOT
BRANCH   1   7
ATOM      7  C   UNL     1       4.735   5.130  -1.534  1.00  0.00     0.341 C 
ATOM      8  O   UNL     1       5.504   5.843  -2.219  1.00  0.00    -0.246 OA
BRANCH   7   9
ATOM      9  O   UNL     1       3.433   5.541  -1.333  1.00  0.00    -0.465 OA
ATOM     10  C   UNL     1       2.978   5.768  -0.002  1.00  0.00     0.282 C 
ENDBRANCH   7   9
ENDBRANCH   1   7
BRANCH   6  11
ATOM     11  O   UNL     1       3.526   2.698  -2.130  1.00  0.00    -0.507 OA
ATOM     12  H   UNL     1       2.849   3.443  -2.122  1.00  0.00     0.293 HD
ENDBRANCH   6  11
BRANCH   4  13
ATOM     13  N   UNL     1       6.758   0.266   0.624  1.00  0.00    -0.308 N 
ATOM     14  C   UNL     1       7.431   0.143   1.847  1.00  0.00     0.325 C 
ATOM     15  N   UNL     1       7.927  -1.116   2.275  1.00  0.00    -0.278 N 
ATOM     16  C   UNL     1       8.612  -1.274   3.505  1.00  0.00     0.193 C 
ATOM     17  N   UNL     1       9.058  -2.607   3.808  1.00  0.00    -0.370 N 
ATOM     18  H   UNL     1       6.656  -0.639   0.063  1.00  0.00     0.171 HD
ATOM     19  O   UNL     1       7.601   1.140   2.571  1.00  0.00    -0.248 OA
ATOM     20  H   UNL     1       7.780  -1.967   1.653  1.00  0.00     0.174 HD
ATOM     21  H   UNL     1       9.249  -2.913   4.790  1.00  0.00     0.159 HD
ATOM     22  H   UNL     1       9.209  -3.328   3.071  1.00  0.00     0.159 HD
BRANCH  16  23
ATOM     23  N   UNL     1       8.867  -0.380   4.351  1.00  0.00    -0.269 NA
ATOM     24  H   UNL     1       8.251   0.129   4.948  1.00  0.00     0.191 HD
ENDBRANCH  16  23
ENDBRANCH   4  13
TORSDOF 5
ENDMDL
MODEL 9
REMARK VINA RESULT:      -0.1      1.237      1.322
REMARK SMILES COC(=O)c1ccc(NC(=O)NC(=N)N)cc1O
REMARK SMILES IDX 5 1 6 2 7 3 8 4 16 5 17 6 3 7 4 8 2 9 1 10 18 11 9 13 10 14
REMARK SMILES IDX 12 15 13 16 15 17 11 19 14 23
REMARK H PARENT 18 12 9 18 12 20 15 21 15 22 14 24
ROOT
ATOM      1  C   UNL     1       4.763   3.756  -0.916  1.00  0.00     0.101 A 
ATOM      2  C   UNL     1       4.376   3.652   0.401  1.00  0.00     0.022 A 
ATOM      3  C   UNL     1       4.832   2.630   1.212  1.00  0.00     0.027 A 
ATOM      4  C   UNL     1       5.704   1.650   0.750  1.00  0.00     0.046 A 
ATOM      5  C   UNL     1       6.083   1.761  -0.563  1.00  0.00     0.073 A 
ATOM      6  C   UNL     1       5.626   2.794  -1.392  1.00  0.00     0.132 A 
ENDROOT
BRANCH   1   7
ATOM      7  C   UNL     1       4.310   4.811  -1.804  1.00  0.00     0.341 C 
ATOM      8  O   UNL     1       4.668   4.768  -3.003  1.00  0.00    -0.246 OA
BRANCH   7   9
ATOM      9  O   UNL     1       3.508   5.847  -1.375  1.00  0.00    -0.465 OA
ATOM     10  C   UNL     1       3.039   5.847  -0.029  1.00  0.00     0.282 C 
ENDBRANCH   7   9
ENDBRANCH   1   7
BRANCH   6  11
ATOM     11  O   UNL     1       6.053   2.850  -2.725  1.00  0.00    -0.507 OA
ATOM     12  H   UNL     1       5.405   2.935  -3.490  1.00  0.00     0.293 HD
ENDBRANCH   6  11
BRANCH   4  13
ATOM     13  N   UNL     1       6.107   0.656   1.649  1.00  0.00    -0.308 N 
ATOM     14  C   UNL     1       7.311   0.585   2.363  1.00  0.00     0.325 C 
ATOM     15  N   UNL     1       7.567  -0.499   3.242  1.00  0.00    -0.278 N 
ATOM     16  C   UNL     1       8.773  -0.600   3.978  1.00  0.00     0.193 C 
ATOM     17  N   UNL     1       8.894  -1.753   4.829  1.00  0.00    -0.370 N 
ATOM     18  H   UNL     1       5.425  -0.148   1.819  1.00  0.00     0.171 HD
ATOM     19  O   UNL     1       8.170   1.476   2.231  1.00  0.00    -0.248 OA
ATOM     20  H   UNL     1       6.829  -1.258   3.352  1.00  0.00     0.174 HD
ATOM     21  H   UNL     1       9.542  -1.765   5.650  1.00  0.00     0.159 HD
ATOM     22  H   UNL     1       8.345  -2.625   4.672  1.00  0.00     0.159 HD
BRANCH  16  23
ATOM     23  N   UNL     1       9.739   0.204   3.965  1.00  0.00    -0.269 NA
ATOM     24  H   UNL     1       9.758   1.175   3.738  1.00  0.00     0.191 HD
ENDBRANCH  16  23
ENDBRANCH   4  13
TORSDOF 5
ENDMDL
