MODEL 1
REMARK VINA RESULT:      -4.5      0.000      0.000
REMARK SMILES CN(C)C1C=C(c2ccccc2)OC1
REMARK SMILES IDX 4 1 5 2 6 3 13 4 14 5 2 6 1 7 3 8 7 9 8 10 12 11 9 12 11 13
REMARK SMILES IDX 10 14
REMARK H PARENT
ROOT
ATOM      1  C   UNL     1       7.724   0.404   3.918  1.00  0.00     0.120 C 
ATOM      2  C   UNL     1       6.729   0.014   2.917  1.00  0.00     0.042 C 
ATOM      3  C   UNL     1       6.426   1.033   2.109  1.00  0.00     0.124 C 
ATOM      4  O   UNL     1       7.180   2.111   2.521  1.00  0.00    -0.491 OA
ATOM      5  C   UNL     1       7.716   1.893   3.835  1.00  0.00     0.253 C 
ENDROOT
BRANCH   1   6
ATOM      6  N   UNL     1       9.002  -0.218   3.754  1.00  0.00    -0.300 NA
ATOM      7  C   UNL     1       8.998  -1.422   2.995  1.00  0.00     0.105 C 
ATOM      8  C   UNL     1       9.465  -0.562   5.098  1.00  0.00     0.105 C 
ENDBRANCH   1   6
BRANCH   3   9
ATOM      9  C   UNL     1       5.474   0.992   1.003  1.00  0.00     0.016 A 
ATOM     10  C   UNL     1       5.482   1.974   0.010  1.00  0.00     0.012 A 
ATOM     11  C   UNL     1       4.548  -0.030   0.933  1.00  0.00     0.012 A 
ATOM     12  C   UNL     1       4.554   1.895  -1.030  1.00  0.00     0.001 A 
ATOM     13  C   UNL     1       3.647  -0.085  -0.098  1.00  0.00     0.001 A 
ATOM     14  C   UNL     1       3.637   0.870  -1.088  1.00  0.00     0.000 A 
ENDBRANCH   3   9
TORSDOF 2
ENDMDL
MODEL 2
REMARK VINA RESULT:      -4.5      1.973      2.901
REMARK SMILES CN(C)C1C=C(c2ccccc2)OC1
REMARK SMILES IDX 4 1 5 2 6 3 13 4 14 5 2 6 1 7 3 8 7 9 8 10 12 11 9 12 11 13
REMARK SMILES IDX 10 14
REMARK H PARENT
ROOT
ATOM      1  C   UNL     1       7.196   0.805   2.906  1.00  0.00     0.120 C 
ATOM      2  C   UNL     1       6.953   2.001   2.097  1.00  0.00     0.042 C 
ATOM      3  C   UNL     1       5.813   1.899   1.409  1.00  0.00     0.124 C 
ATOM      4  O   UNL     1       5.265   0.672   1.718  1.00  0.00    -0.491 OA
ATOM      5  C   UNL     1       6.234  -0.184   2.339  1.00  0.00     0.253 C 
ENDROOT
BRANCH   1   6
ATOM      6  N   UNL     1       7.104   1.018   4.318  1.00  0.00    -0.300 NA
ATOM      7  C   UNL     1       8.142   1.813   4.881  1.00  0.00     0.105 C 
ATOM      8  C   UNL     1       7.192  -0.303   4.938  1.00  0.00     0.105 C 
ENDBRANCH   1   6
BRANCH   3   9
ATOM      9  C   UNL     1       5.268   2.908   0.505  1.00  0.00     0.016 A 
ATOM     10  C   UNL     1       5.202   2.680  -0.872  1.00  0.00     0.012 A 
ATOM     11  C   UNL     1       4.810   4.107   1.013  1.00  0.00     0.012 A 
ATOM     12  C   UNL     1       4.673   3.673  -1.698  1.00  0.00     0.001 A 
ATOM     13  C   UNL     1       4.295   5.066   0.179  1.00  0.00     0.001 A 
ATOM     14  C   UNL     1       4.219   4.864  -1.179  1.00  0.00     0.000 A 
ENDBRANCH   3   9
TORSDOF 2
ENDMDL
MODEL 3
REMARK VINA RESULT:      -4.5      2.418      3.707
REMARK SMILES CN(C)C1C=C(c2ccccc2)OC1
REMARK SMILES IDX 4 1 5 2 6 3 13 4 14 5 2 6 1 7 3 8 7 9 8 10 12 11 9 12 11 13
REMARK SMILES IDX 10 14
REMARK H PARENT
ROOT
ATOM      1  C   UNL     1       6.467  -0.178   0.523  1.00  0.00     0.120 C 
ATOM      2  C   UNL     1       6.440   1.276   0.349  1.00  0.00     0.042 C 
ATOM      3  C   UNL     1       5.197   1.716   0.137  1.00  0.00     0.124 C 
ATOM      4  O   UNL     1       4.369   0.614   0.159  1.00  0.00    -0.491 OA
ATOM      5  C   UNL     1       5.125  -0.600   0.030  1.00  0.00     0.253 C 
ENDROOT
BRANCH   1   6
ATOM      6  N   UNL     1       6.803  -0.608   1.846  1.00  0.00    -0.300 NA
ATOM      7  C   UNL     1       5.787  -0.415   2.824  1.00  0.00     0.105 C 
ATOM      8  C   UNL     1       7.952   0.198   2.259  1.00  0.00     0.105 C 
ENDBRANCH   1   6
BRANCH   3   9
ATOM      9  C   UNL     1       4.810   3.108  -0.077  1.00  0.00     0.016 A 
ATOM     10  C   UNL     1       4.685   3.631  -1.366  1.00  0.00     0.012 A 
ATOM     11  C   UNL     1       4.562   3.925   1.008  1.00  0.00     0.012 A 
ATOM     12  C   UNL     1       4.312   4.967  -1.523  1.00  0.00     0.001 A 
ATOM     13  C   UNL     1       4.197   5.234   0.827  1.00  0.00     0.001 A 
ATOM     14  C   UNL     1       4.067   5.769  -0.432  1.00  0.00     0.000 A 
ENDBRANCH   3   9
TORSDOF 2
ENDMDL
MODEL 4
REMARK VINA RESULT:      -4.5      0.797      1.415
REMARK SMILES CN(C)C1C=C(c2ccccc2)OC1
REMARK SMILES IDX 4 1 5 2 6 3 13 4 14 5 2 6 1 7 3 8 7 9 8 10 12 11 9 12 11 13
REMARK SMILES IDX 10 14
REMARK H PARENT
ROOT
ATOM      1  C   UNL     1       7.779  -0.606   4.017  1.00  0.00     0.120 C 
ATOM      2  C   UNL     1       6.915  -0.739   2.842  1.00  0.00     0.042 C 
ATOM      3  C   UNL     1       6.454   0.448   2.441  1.00  0.00     0.124 C 
ATOM      4  O   UNL     1       6.973   1.393   3.300  1.00  0.00    -0.491 OA
ATOM      5  C   UNL     1       7.491   0.779   4.489  1.00  0.00     0.253 C 
ENDROOT
BRANCH   1   6
ATOM      6  N   UNL     1       9.157  -0.903   3.773  1.00  0.00    -0.300 NA
ATOM      7  C   UNL     1       9.397  -2.007   2.907  1.00  0.00     0.105 C 
ATOM      8  C   UNL     1       9.739  -1.243   5.070  1.00  0.00     0.105 C 
ENDBRANCH   1   6
BRANCH   3   9
ATOM      9  C   UNL     1       5.569   0.679   1.303  1.00  0.00     0.016 A 
ATOM     10  C   UNL     1       5.009  -0.389   0.598  1.00  0.00     0.012 A 
ATOM     11  C   UNL     1       5.278   1.971   0.912  1.00  0.00     0.012 A 
ATOM     12  C   UNL     1       4.167  -0.121  -0.483  1.00  0.00     0.001 A 
ATOM     13  C   UNL     1       4.449   2.208  -0.154  1.00  0.00     0.001 A 
ATOM     14  C   UNL     1       3.885   1.172  -0.861  1.00  0.00     0.000 A 
ENDBRANCH   3   9
TORSDOF 2
ENDMDL
MODEL 5
REMARK VINA RESULT:      -4.4      1.899      3.121
REMARK SMILES CN(C)C1C=C(c2ccccc2)OC1
REMARK SMILES IDX 4 1 5 2 6 3 13 4 14 5 2 6 1 7 3 8 7 9 8 10 12 11 9 12 11 13
REMARK SMILES IDX 10 14
REMARK H PARENT
ROOT
ATOM      1  C   UNL     1       7.655   3.027   3.305  1.00  0.00     0.120 C 
ATOM      2  C   UNL     1       6.824   2.956   2.101  1.00  0.00     0.042 C 
ATOM      3  C   UNL     1       6.211   1.774   2.002  1.00  0.00     0.124 C 
ATOM      4  O   UNL     1       6.592   1.030   3.098  1.00  0.00    -0.491 OA
ATOM      5  C   UNL     1       7.745   1.601   3.733  1.00  0.00     0.253 C 
ENDROOT
BRANCH   1   6
ATOM      6  N   UNL     1       7.179   3.942   4.297  1.00  0.00    -0.300 NA
ATOM      7  C   UNL     1       6.788   5.220   3.807  1.00  0.00     0.105 C 
ATOM      8  C   UNL     1       8.294   4.161   5.218  1.00  0.00     0.105 C 
ENDBRANCH   1   6
BRANCH   3   9
ATOM      9  C   UNL     1       5.309   1.368   0.927  1.00  0.00     0.016 A 
ATOM     10  C   UNL     1       4.545   0.203   1.032  1.00  0.00     0.012 A 
ATOM     11  C   UNL     1       5.207   2.140  -0.212  1.00  0.00     0.012 A 
ATOM     12  C   UNL     1       3.696  -0.147  -0.019  1.00  0.00     0.001 A 
ATOM     13  C   UNL     1       4.366   1.774  -1.230  1.00  0.00     0.001 A 
ATOM     14  C   UNL     1       3.604   0.633  -1.149  1.00  0.00     0.000 A 
ENDBRANCH   3   9
TORSDOF 2
ENDMDL
MODEL 6
REMARK VINA RESULT:      -4.4      2.307      3.384
REMARK SMILES CN(C)C1C=C(c2ccccc2)OC1
REMARK SMILES IDX 4 1 5 2 6 3 13 4 14 5 2 6 1 7 3 8 7 9 8 10 12 11 9 12 11 13
REMARK SMILES IDX 10 14
REMARK H PARENT
ROOT
ATOM      1  C   UNL     1       6.679   0.347   1.327  1.00  0.00     0.120 C 
ATOM      2  C   UNL     1       6.566   1.678   0.727  1.00  0.00     0.042 C 
ATOM      3  C   UNL     1       5.301   2.104   0.723  1.00  0.00     0.124 C 
ATOM      4  O   UNL     1       4.540   1.110   1.301  1.00  0.00    -0.491 OA
ATOM      5  C   UNL     1       5.266  -0.127   1.359  1.00  0.00     0.253 C 
ENDROOT
BRANCH   1   6
ATOM      6  N   UNL     1       7.369   0.322   2.581  1.00  0.00    -0.300 NA
ATOM      7  C   UNL     1       8.644  -0.309   2.560  1.00  0.00     0.105 C 
ATOM      8  C   UNL     1       6.527  -0.447   3.496  1.00  0.00     0.105 C 
ENDBRANCH   1   6
BRANCH   3   9
ATOM      9  C   UNL     1       4.832   3.384   0.200  1.00  0.00     0.016 A 
ATOM     10  C   UNL     1       4.774   3.622  -1.175  1.00  0.00     0.012 A 
ATOM     11  C   UNL     1       4.440   4.379   1.073  1.00  0.00     0.012 A 
ATOM     12  C   UNL     1       4.319   4.861  -1.630  1.00  0.00     0.001 A 
ATOM     13  C   UNL     1       3.997   5.588   0.601  1.00  0.00     0.001 A 
ATOM     14  C   UNL     1       3.931   5.844  -0.748  1.00  0.00     0.000 A 
ENDBRANCH   3   9
TORSDOF 2
ENDMDL
MODEL 7
REMARK VINA RESULT:      -4.4      2.390      3.681
REMARK SMILES CN(C)C1C=C(c2ccccc2)OC1
REMARK SMILES IDX 4 1 5 2 6 3 13 4 14 5 2 6 1 7 3 8 7 9 8 10 12 11 9 12 11 13
REMARK SMILES IDX 10 14
REMARK H PARENT
ROOT
ATOM      1  C   UNL     1       6.809   0.128   0.582  1.00  0.00     0.120 C 
ATOM      2  C   UNL     1       6.676   1.564   0.328  1.00  0.00     0.042 C 
ATOM      3  C   UNL     1       5.394   1.923   0.230  1.00  0.00     0.124 C 
ATOM      4  O   UNL     1       4.641   0.782   0.408  1.00  0.00    -0.491 OA
ATOM      5  C   UNL     1       5.448  -0.395   0.268  1.00  0.00     0.253 C 
ENDROOT
BRANCH   1   6
ATOM      6  N   UNL     1       7.311  -0.197   1.882  1.00  0.00    -0.300 NA
ATOM      7  C   UNL     1       6.322  -0.522   2.852  1.00  0.00     0.105 C 
ATOM      8  C   UNL     1       8.006   0.996   2.363  1.00  0.00     0.105 C 
ENDBRANCH   1   6
BRANCH   3   9
ATOM      9  C   UNL     1       4.904   3.276  -0.019  1.00  0.00     0.016 A 
ATOM     10  C   UNL     1       4.674   4.164   1.035  1.00  0.00     0.012 A 
ATOM     11  C   UNL     1       4.660   3.690  -1.314  1.00  0.00     0.012 A 
ATOM     12  C   UNL     1       4.206   5.447   0.750  1.00  0.00     0.001 A 
ATOM     13  C   UNL     1       4.200   4.956  -1.567  1.00  0.00     0.001 A 
ATOM     14  C   UNL     1       3.968   5.847  -0.545  1.00  0.00     0.000 A 
ENDBRANCH   3   9
TORSDOF 2
ENDMDL
MODEL 8
REMARK VINA RESULT:      -4.3      1.054      1.878
REMARK SMILES CN(C)C1C=C(c2ccccc2)OC1
REMARK SMILES IDX 4 1 5 2 6 3 13 4 14 5 2 6 1 7 3 8 7 9 8 10 12 11 9 12 11 13
REMARK SMILES IDX 10 14
REMARK H PARENT
ROOT
ATOM      1  C   UNL     1       7.948  -0.816   3.393  1.00  0.00     0.120 C 
ATOM      2  C   UNL     1       7.252  -0.756   2.106  1.00  0.00     0.042 C 
ATOM      3  C   UNL     1       6.422   0.289   2.051  1.00  0.00     0.124 C 
ATOM      4  O   UNL     1       6.525   0.950   3.257  1.00  0.00    -0.491 OA
ATOM      5  C   UNL     1       7.163   0.126   4.243  1.00  0.00     0.253 C 
ENDROOT
BRANCH   1   6
ATOM      6  N   UNL     1       9.353  -0.555   3.316  1.00  0.00    -0.300 NA
ATOM      7  C   UNL     1       9.740   0.781   3.621  1.00  0.00     0.105 C 
ATOM      8  C   UNL     1       9.740  -0.806   1.929  1.00  0.00     0.105 C 
ENDBRANCH   1   6
BRANCH   3   9
ATOM      9  C   UNL     1       5.575   0.647   0.917  1.00  0.00     0.016 A 
ATOM     10  C   UNL     1       4.504  -0.165   0.534  1.00  0.00     0.012 A 
ATOM     11  C   UNL     1       5.830   1.803   0.208  1.00  0.00     0.012 A 
ATOM     12  C   UNL     1       3.720   0.216  -0.556  1.00  0.00     0.001 A 
ATOM     13  C   UNL     1       5.045   2.155  -0.859  1.00  0.00     0.001 A 
ATOM     14  C   UNL     1       3.985   1.372  -1.253  1.00  0.00     0.000 A 
ENDBRANCH   3   9
TORSDOF 2
ENDMDL
MODEL 9
REMARK VINA RESULT:      -4.2      1.870      2.662
REMARK SMILES CN(C)C1C=C(c2ccccc2)OC1
REMARK SMILES IDX 4 1 5 2 6 3 13 4 14 5 2 6 1 7 3 8 7 9 8 10 12 11 9 12 11 13
REMARK SMILES IDX 10 14
REMARK H PARENT
ROOT
ATOM      1  C   UNL     1       7.204   0.447   3.146  1.00  0.00     0.120 C 
ATOM      2  C   UNL     1       7.024   1.627   2.298  1.00  0.00     0.042 C 
ATOM      3  C   UNL     1       5.883   1.560   1.607  1.00  0.00     0.124 C 
ATOM      4  O   UNL     1       5.273   0.373   1.953  1.00  0.00    -0.491 OA
ATOM      5  C   UNL     1       6.196  -0.510   2.607  1.00  0.00     0.253 C 
ENDROOT
BRANCH   1   6
ATOM      6  N   UNL     1       7.117   0.711   4.550  1.00  0.00    -0.300 NA
ATOM      7  C   UNL     1       8.137   1.555   5.074  1.00  0.00     0.105 C 
ATOM      8  C   UNL     1       7.249  -0.583   5.219  1.00  0.00     0.105 C 
ENDBRANCH   1   6
BRANCH   3   9
ATOM      9  C   UNL     1       5.393   2.565   0.669  1.00  0.00     0.016 A 
ATOM     10  C   UNL     1       4.936   3.807   1.118  1.00  0.00     0.012 A 
ATOM     11  C   UNL     1       5.378   2.291  -0.684  1.00  0.00     0.012 A 
ATOM     12  C   UNL     1       4.477   4.738   0.185  1.00  0.00     0.001 A 
ATOM     13  C   UNL     1       4.921   3.222  -1.580  1.00  0.00     0.001 A 
ATOM     14  C   UNL     1       4.468   4.451  -1.161  1.00  0.00     0.000 A 
ENDBRANCH   3   9
TORSDOF 2
ENDMDL
