MODEL 1
REMARK VINA RESULT:      27.2      0.000      0.000
REMARK SMILES Cc1cc(C(=O)NC(C)c2ncccn2)nn1-c1cc(C(F)(F)F)cc(C(F)(F)F)c1
REMARK SMILES IDX 1 1 2 2 3 3 4 4 16 5 17 6 18 7 19 8 31 9 20 10 26 11 25 12
REMARK SMILES IDX 21 13 22 14 23 15 24 16 27 17 28 18 29 19 30 20 5 21 7 22
REMARK SMILES IDX 6 23 8 25 9 26 10 27 11 28 15 29 12 30 14 31 13 32
REMARK H PARENT 7 24
ROOT
ATOM      1  C   UNL     1       1.966   0.700   1.372  1.00  0.00     0.067 C 
ATOM      2  C   UNL     1       3.447   0.730   1.232  1.00  0.00     0.042 A 
ATOM      3  C   UNL     1       4.397   0.160   2.073  1.00  0.00     0.059 A 
ATOM      4  C   UNL     1       5.659   0.444   1.547  1.00  0.00     0.150 A 
ATOM      5  N   UNL     1       5.444   1.160   0.428  1.00  0.00    -0.162 NA
ATOM      6  N   UNL     1       4.144   1.327   0.245  1.00  0.00    -0.237 N 
ENDROOT
BRANCH   6   7
ATOM      7  C   UNL     1       3.620   2.061  -0.881  1.00  0.00     0.066 A 
ATOM      8  C   UNL     1       4.228   3.197  -1.354  1.00  0.00     0.041 A 
ATOM      9  C   UNL     1       2.465   1.563  -1.470  1.00  0.00     0.041 A 
ATOM     10  C   UNL     1       3.646   3.838  -2.450  1.00  0.00     0.058 A 
ATOM     11  C   UNL     1       1.880   2.185  -2.552  1.00  0.00     0.058 A 
ATOM     12  C   UNL     1       2.497   3.327  -3.022  1.00  0.00     0.026 A 
BRANCH  10  13
ATOM     13  C   UNL     1       4.322   5.057  -2.935  1.00  0.00     0.416 C 
ATOM     14  F   UNL     1       3.518   5.828  -3.742  1.00  0.00    -0.166 F 
ATOM     15  F   UNL     1       4.780   5.846  -1.922  1.00  0.00    -0.166 F 
ATOM     16  F   UNL     1       5.418   4.684  -3.711  1.00  0.00    -0.166 F 
ENDBRANCH  10  13
BRANCH  11  17
ATOM     17  C   UNL     1       0.650   1.677  -3.198  1.00  0.00     0.416 C 
ATOM     18  F   UNL     1      -0.351   1.562  -2.248  1.00  0.00    -0.166 F 
ATOM     19  F   UNL     1       0.927   0.414  -3.730  1.00  0.00    -0.166 F 
ATOM     20  F   UNL     1       0.263   2.531  -4.221  1.00  0.00    -0.166 F 
ENDBRANCH  11  17
ENDBRANCH   6   7
BRANCH   4  21
ATOM     21  C   UNL     1       6.922   0.024   2.132  1.00  0.00     0.272 C 
ATOM     22  N   UNL     1       7.946   0.996   2.294  1.00  0.00    -0.341 N 
ATOM     23  O   UNL     1       7.048  -1.182   2.467  1.00  0.00    -0.267 OA
ATOM     24  H   UNL     1       7.760   1.986   1.986  1.00  0.00     0.164 HD
BRANCH  22  25
ATOM     25  C   UNL     1       9.245   0.693   2.865  1.00  0.00     0.147 C 
ATOM     26  C   UNL     1       9.721   1.703   3.861  1.00  0.00     0.039 C 
BRANCH  25  27
ATOM     27  C   UNL     1       9.328  -0.711   3.377  1.00  0.00     0.150 A 
ATOM     28  N   UNL     1       9.665  -1.729   2.532  1.00  0.00    -0.239 NA
ATOM     29  N   UNL     1       9.069  -0.980   4.691  1.00  0.00    -0.239 NA
ATOM     30  C   UNL     1       9.737  -3.003   3.013  1.00  0.00     0.115 A 
ATOM     31  C   UNL     1       9.130  -2.227   5.200  1.00  0.00     0.115 A 
ATOM     32  C   UNL     1       9.468  -3.258   4.358  1.00  0.00     0.040 A 
ENDBRANCH  25  27
ENDBRANCH  22  25
ENDBRANCH   4  21
TORSDOF 6
ENDMDL
MODEL 2
REMARK VINA RESULT:      29.5      1.747      3.067
REMARK SMILES Cc1cc(C(=O)NC(C)c2ncccn2)nn1-c1cc(C(F)(F)F)cc(C(F)(F)F)c1
REMARK SMILES IDX 1 1 2 2 3 3 4 4 16 5 17 6 18 7 19 8 31 9 20 10 26 11 25 12
REMARK SMILES IDX 21 13 22 14 23 15 24 16 27 17 28 18 29 19 30 20 5 21 7 22
REMARK SMILES IDX 6 23 8 25 9 26 10 27 11 28 15 29 12 30 14 31 13 32
REMARK H PARENT 7 24
ROOT
ATOM      1  C   UNL     1       2.480  -1.809  -0.341  1.00  0.00     0.067 C 
ATOM      2  C   UNL     1       3.582  -1.012   0.262  1.00  0.00     0.042 A 
ATOM      3  C   UNL     1       4.502  -1.416   1.226  1.00  0.00     0.059 A 
ATOM      4  C   UNL     1       5.348  -0.337   1.488  1.00  0.00     0.150 A 
ATOM      5  N   UNL     1       4.929   0.667   0.696  1.00  0.00    -0.162 NA
ATOM      6  N   UNL     1       3.892   0.268  -0.023  1.00  0.00    -0.237 N 
ENDROOT
BRANCH   6   7
ATOM      7  C   UNL     1       3.234   1.142  -0.963  1.00  0.00     0.066 A 
ATOM      8  C   UNL     1       3.512   2.485  -1.023  1.00  0.00     0.041 A 
ATOM      9  C   UNL     1       2.301   0.560  -1.811  1.00  0.00     0.041 A 
ATOM     10  C   UNL     1       2.824   3.250  -1.968  1.00  0.00     0.058 A 
ATOM     11  C   UNL     1       1.614   1.304  -2.749  1.00  0.00     0.058 A 
ATOM     12  C   UNL     1       1.899   2.653  -2.803  1.00  0.00     0.026 A 
BRANCH  10  13
ATOM     13  C   UNL     1       3.143   4.690  -2.008  1.00  0.00     0.416 C 
ATOM     14  F   UNL     1       3.444   5.206  -0.769  1.00  0.00    -0.166 F 
ATOM     15  F   UNL     1       4.181   4.978  -2.845  1.00  0.00    -0.166 F 
ATOM     16  F   UNL     1       2.026   5.386  -2.464  1.00  0.00    -0.166 F 
ENDBRANCH  10  13
BRANCH  11  17
ATOM     17  C   UNL     1       0.615   0.710  -3.664  1.00  0.00     0.416 C 
ATOM     18  F   UNL     1       1.229   0.385  -4.862  1.00  0.00    -0.166 F 
ATOM     19  F   UNL     1      -0.380   1.662  -3.900  1.00  0.00    -0.166 F 
ATOM     20  F   UNL     1       0.046  -0.414  -3.081  1.00  0.00    -0.166 F 
ENDBRANCH  11  17
ENDBRANCH   6   7
BRANCH   4  21
ATOM     21  C   UNL     1       6.448  -0.350   2.438  1.00  0.00     0.272 C 
ATOM     22  N   UNL     1       7.362   0.739   2.426  1.00  0.00    -0.341 N 
ATOM     23  O   UNL     1       6.538  -1.325   3.228  1.00  0.00    -0.267 OA
ATOM     24  H   UNL     1       7.216   1.517   1.731  1.00  0.00     0.164 HD
BRANCH  22  25
ATOM     25  C   UNL     1       8.496   0.833   3.326  1.00  0.00     0.147 C 
ATOM     26  C   UNL     1       9.686   0.038   2.889  1.00  0.00     0.039 C 
BRANCH  25  27
ATOM     27  C   UNL     1       8.839   2.251   3.663  1.00  0.00     0.150 A 
ATOM     28  N   UNL     1       8.577   3.249   2.770  1.00  0.00    -0.239 NA
ATOM     29  N   UNL     1       9.414   2.553   4.865  1.00  0.00    -0.239 NA
ATOM     30  C   UNL     1       8.893   4.537   3.090  1.00  0.00     0.115 A 
ATOM     31  C   UNL     1       9.740   3.813   5.215  1.00  0.00     0.115 A 
ATOM     32  C   UNL     1       9.480   4.825   4.322  1.00  0.00     0.040 A 
ENDBRANCH  25  27
ENDBRANCH  22  25
ENDBRANCH   4  21
TORSDOF 6
ENDMDL
