MODEL 1
REMARK VINA RESULT:      -3.0      0.000      0.000
REMARK SMILES O=C(CNS(=O)(=O)c1ccc(Cl)cc1)OCc1nnc(-c2ccccc2)o1
REMARK SMILES IDX 1 1 2 2 3 3 4 4 5 6 6 7 7 8 8 9 9 10 14 11 10 12 13 13 11 14
REMARK SMILES IDX 12 15 15 16 16 17 17 18 18 19 27 20 19 21 20 22 21 23 22 24
REMARK SMILES IDX 26 25 23 26 25 27 24 28
REMARK H PARENT 4 5
ROOT
ATOM      1  O   UNL     1       3.559  -0.390   0.219  1.00  0.00    -0.251 OA
ATOM      2  C   UNL     1       4.529   0.066  -0.393  1.00  0.00     0.321 C 
ENDROOT
BRANCH   2   3
ATOM      3  C   UNL     1       4.393   1.037  -1.579  1.00  0.00     0.221 C 
BRANCH   3   4
ATOM      4  N   UNL     1       5.180   2.184  -1.305  1.00  0.00    -0.200 NA
ATOM      5  H   UNL     1       6.170   2.117  -1.659  1.00  0.00     0.142 HD
BRANCH   4   6
ATOM      6  S   UNL     1       4.976   2.998   0.132  1.00  0.00     0.241 S 
ATOM      7  O   UNL     1       4.771   4.489  -0.202  1.00  0.00    -0.207 OA
ATOM      8  O   UNL     1       3.572   2.511   0.655  1.00  0.00    -0.207 OA
BRANCH   6   9
ATOM      9  C   UNL     1       6.069   2.934   1.429  1.00  0.00     0.082 A 
ATOM     10  C   UNL     1       6.984   4.050   1.479  1.00  0.00     0.023 A 
ATOM     11  C   UNL     1       6.206   2.055   2.435  1.00  0.00     0.023 A 
ATOM     12  C   UNL     1       7.911   4.224   2.449  1.00  0.00     0.022 A 
ATOM     13  C   UNL     1       7.157   2.238   3.441  1.00  0.00     0.022 A 
ATOM     14  C   UNL     1       8.010   3.303   3.475  1.00  0.00     0.041 A 
ATOM     15  Cl  UNL     1       9.203   3.602   4.698  1.00  0.00    -0.084 Cl
ENDBRANCH   6   9
ENDBRANCH   4   6
ENDBRANCH   3   4
ENDBRANCH   2   3
BRANCH   2  16
ATOM     16  O   UNL     1       5.770  -0.279  -0.084  1.00  0.00    -0.455 OA
BRANCH  16  17
ATOM     17  C   UNL     1       6.964  -0.611   0.224  1.00  0.00     0.332 C 
BRANCH  17  18
ATOM     18  C   UNL     1       8.074   0.361   0.227  1.00  0.00     0.254 A 
ATOM     19  N   UNL     1       9.013   0.769   1.042  1.00  0.00    -0.109 NA
ATOM     20  O   UNL     1       8.231   1.091  -0.879  1.00  0.00    -0.417 OA
ATOM     21  N   UNL     1       9.734   1.747   0.439  1.00  0.00    -0.108 NA
ATOM     22  C   UNL     1       9.234   1.941  -0.754  1.00  0.00     0.247 A 
BRANCH  22  23
ATOM     23  C   UNL     1       9.530   2.838  -1.896  1.00  0.00     0.039 A 
ATOM     24  C   UNL     1       9.592   2.251  -3.145  1.00  0.00     0.014 A 
ATOM     25  C   UNL     1       9.562   4.171  -1.648  1.00  0.00     0.014 A 
ATOM     26  C   UNL     1       9.696   3.111  -4.241  1.00  0.00     0.001 A 
ATOM     27  C   UNL     1       9.666   5.002  -2.761  1.00  0.00     0.001 A 
ATOM     28  C   UNL     1       9.730   4.473  -4.031  1.00  0.00     0.000 A 
ENDBRANCH  22  23
ENDBRANCH  17  18
ENDBRANCH  16  17
ENDBRANCH   2  16
TORSDOF 8
ENDMDL
MODEL 2
REMARK VINA RESULT:      -2.3      2.611      5.253
REMARK SMILES O=C(CNS(=O)(=O)c1ccc(Cl)cc1)OCc1nnc(-c2ccccc2)o1
REMARK SMILES IDX 1 1 2 2 3 3 4 4 5 6 6 7 7 8 8 9 9 10 14 11 10 12 13 13 11 14
REMARK SMILES IDX 12 15 15 16 16 17 17 18 18 19 27 20 19 21 20 22 21 23 22 24
REMARK SMILES IDX 26 25 23 26 25 27 24 28
REMARK H PARENT 4 5
ROOT
ATOM      1  O   UNL     1       3.536  -0.667   0.418  1.00  0.00    -0.251 OA
ATOM      2  C   UNL     1       4.158   0.352   0.729  1.00  0.00     0.321 C 
ENDROOT
BRANCH   2   3
ATOM      3  C   UNL     1       4.819   0.546   2.106  1.00  0.00     0.221 C 
BRANCH   3   4
ATOM      4  N   UNL     1       5.896  -0.371   2.213  1.00  0.00    -0.200 NA
ATOM      5  H   UNL     1       6.230  -0.523   3.200  1.00  0.00     0.142 HD
BRANCH   4   6
ATOM      6  S   UNL     1       7.069  -0.403   1.035  1.00  0.00     0.241 S 
ATOM      7  O   UNL     1       8.307  -1.103   1.628  1.00  0.00    -0.207 OA
ATOM      8  O   UNL     1       6.514  -1.414  -0.037  1.00  0.00    -0.207 OA
BRANCH   6   9
ATOM      9  C   UNL     1       7.635   0.971   0.213  1.00  0.00     0.082 A 
ATOM     10  C   UNL     1       8.186   1.986   1.080  1.00  0.00     0.023 A 
ATOM     11  C   UNL     1       7.696   1.263  -1.096  1.00  0.00     0.023 A 
ATOM     12  C   UNL     1       8.730   3.143   0.638  1.00  0.00     0.022 A 
ATOM     13  C   UNL     1       8.264   2.454  -1.554  1.00  0.00     0.022 A 
ATOM     14  C   UNL     1       8.787   3.399  -0.720  1.00  0.00     0.041 A 
ATOM     15  Cl  UNL     1       9.521   4.890  -1.218  1.00  0.00    -0.084 Cl
ENDBRANCH   6   9
ENDBRANCH   4   6
ENDBRANCH   3   4
ENDBRANCH   2   3
BRANCH   2  16
ATOM     16  O   UNL     1       4.275   1.377  -0.102  1.00  0.00    -0.455 OA
BRANCH  16  17
ATOM     17  C   UNL     1       4.396   2.360  -0.908  1.00  0.00     0.332 C 
BRANCH  17  18
ATOM     18  C   UNL     1       4.824   3.697  -0.456  1.00  0.00     0.254 A 
ATOM     19  N   UNL     1       4.852   4.922  -0.916  1.00  0.00    -0.109 NA
ATOM     20  O   UNL     1       5.364   3.771   0.763  1.00  0.00    -0.417 OA
ATOM     21  N   UNL     1       5.413   5.736   0.012  1.00  0.00    -0.108 NA
ATOM     22  C   UNL     1       5.731   5.007   1.051  1.00  0.00     0.247 A 
BRANCH  22  23
ATOM     23  C   UNL     1       6.363   5.254   2.368  1.00  0.00     0.039 A 
ATOM     24  C   UNL     1       5.573   5.047   3.482  1.00  0.00     0.014 A 
ATOM     25  C   UNL     1       7.694   5.510   2.381  1.00  0.00     0.014 A 
ATOM     26  C   UNL     1       6.209   5.109   4.725  1.00  0.00     0.001 A 
ATOM     27  C   UNL     1       8.300   5.565   3.634  1.00  0.00     0.001 A 
ATOM     28  C   UNL     1       7.563   5.365   4.780  1.00  0.00     0.000 A 
ENDBRANCH  22  23
ENDBRANCH  17  18
ENDBRANCH  16  17
ENDBRANCH   2  16
TORSDOF 8
ENDMDL
MODEL 3
REMARK VINA RESULT:      -2.0      3.335      5.924
REMARK SMILES O=C(CNS(=O)(=O)c1ccc(Cl)cc1)OCc1nnc(-c2ccccc2)o1
REMARK SMILES IDX 1 1 2 2 3 3 4 4 5 6 6 7 7 8 8 9 9 10 14 11 10 12 13 13 11 14
REMARK SMILES IDX 12 15 15 16 16 17 17 18 18 19 27 20 19 21 20 22 21 23 22 24
REMARK SMILES IDX 26 25 23 26 25 27 24 28
REMARK H PARENT 4 5
ROOT
ATOM      1  O   UNL     1       9.736   4.235  -0.193  1.00  0.00    -0.251 OA
ATOM      2  C   UNL     1       9.044   5.011   0.471  1.00  0.00     0.321 C 
ENDROOT
BRANCH   2   3
ATOM      3  C   UNL     1       9.565   5.739   1.724  1.00  0.00     0.221 C 
BRANCH   3   4
ATOM      4  N   UNL     1       8.495   5.847   2.649  1.00  0.00    -0.200 NA
ATOM      5  H   UNL     1       8.232   6.840   2.882  1.00  0.00     0.142 HD
BRANCH   4   6
ATOM      6  S   UNL     1       8.368   4.750   3.892  1.00  0.00     0.241 S 
ATOM      7  O   UNL     1       9.500   5.048   4.895  1.00  0.00    -0.207 OA
ATOM      8  O   UNL     1       7.049   5.170   4.644  1.00  0.00    -0.207 OA
BRANCH   6   9
ATOM      9  C   UNL     1       8.336   3.066   3.680  1.00  0.00     0.082 A 
ATOM     10  C   UNL     1       9.559   2.404   4.067  1.00  0.00     0.023 A 
ATOM     11  C   UNL     1       7.365   2.241   3.256  1.00  0.00     0.023 A 
ATOM     12  C   UNL     1       9.740   1.064   4.021  1.00  0.00     0.022 A 
ATOM     13  C   UNL     1       7.548   0.857   3.215  1.00  0.00     0.022 A 
ATOM     14  C   UNL     1       8.710   0.248   3.591  1.00  0.00     0.041 A 
ATOM     15  Cl  UNL     1       9.002  -1.462   3.582  1.00  0.00    -0.084 Cl
ENDBRANCH   6   9
ENDBRANCH   4   6
ENDBRANCH   3   4
ENDBRANCH   2   3
BRANCH   2  16
ATOM     16  O   UNL     1       7.778   5.252   0.163  1.00  0.00    -0.455 OA
BRANCH  16  17
ATOM     17  C   UNL     1       6.555   5.474  -0.129  1.00  0.00     0.332 C 
BRANCH  17  18
ATOM     18  C   UNL     1       5.463   4.609   0.355  1.00  0.00     0.254 A 
ATOM     19  N   UNL     1       4.421   4.698   1.141  1.00  0.00    -0.109 NA
ATOM     20  O   UNL     1       5.469   3.344  -0.073  1.00  0.00    -0.417 OA
ATOM     21  N   UNL     1       3.799   3.493   1.198  1.00  0.00    -0.108 NA
ATOM     22  C   UNL     1       4.465   2.659   0.441  1.00  0.00     0.247 A 
BRANCH  22  23
ATOM     23  C   UNL     1       4.339   1.229   0.073  1.00  0.00     0.039 A 
ATOM     24  C   UNL     1       5.477   0.456   0.197  1.00  0.00     0.014 A 
ATOM     25  C   UNL     1       3.096   0.765  -0.204  1.00  0.00     0.014 A 
ATOM     26  C   UNL     1       5.325  -0.922   0.020  1.00  0.00     0.001 A 
ATOM     27  C   UNL     1       2.975  -0.613  -0.375  1.00  0.00     0.001 A 
ATOM     28  C   UNL     1       4.075  -1.433  -0.261  1.00  0.00     0.000 A 
ENDBRANCH  22  23
ENDBRANCH  17  18
ENDBRANCH  16  17
ENDBRANCH   2  16
TORSDOF 8
ENDMDL
MODEL 4
REMARK VINA RESULT:      -1.8      3.074      5.466
REMARK SMILES O=C(CNS(=O)(=O)c1ccc(Cl)cc1)OCc1nnc(-c2ccccc2)o1
REMARK SMILES IDX 1 1 2 2 3 3 4 4 5 6 6 7 7 8 8 9 9 10 14 11 10 12 13 13 11 14
REMARK SMILES IDX 12 15 15 16 16 17 17 18 18 19 27 20 19 21 20 22 21 23 22 24
REMARK SMILES IDX 26 25 23 26 25 27 24 28
REMARK H PARENT 4 5
ROOT
ATOM      1  O   UNL     1       4.342   4.494  -1.736  1.00  0.00    -0.251 OA
ATOM      2  C   UNL     1       5.240   4.275  -0.919  1.00  0.00     0.321 C 
ENDROOT
BRANCH   2   3
ATOM      3  C   UNL     1       6.184   3.062  -1.012  1.00  0.00     0.221 C 
BRANCH   3   4
ATOM      4  N   UNL     1       5.461   1.983  -1.582  1.00  0.00    -0.200 NA
ATOM      5  H   UNL     1       4.474   2.228  -1.856  1.00  0.00     0.142 HD
BRANCH   4   6
ATOM      6  S   UNL     1       5.694   0.440  -1.004  1.00  0.00     0.241 S 
ATOM      7  O   UNL     1       4.682  -0.481  -1.713  1.00  0.00    -0.207 OA
ATOM      8  O   UNL     1       7.095   0.016  -1.586  1.00  0.00    -0.207 OA
BRANCH   6   9
ATOM      9  C   UNL     1       5.663   0.023   0.641  1.00  0.00     0.082 A 
ATOM     10  C   UNL     1       6.917  -0.493   1.138  1.00  0.00     0.023 A 
ATOM     11  C   UNL     1       4.695   0.123   1.567  1.00  0.00     0.023 A 
ATOM     12  C   UNL     1       7.130  -0.848   2.426  1.00  0.00     0.022 A 
ATOM     13  C   UNL     1       4.916  -0.236   2.898  1.00  0.00     0.022 A 
ATOM     14  C   UNL     1       6.112  -0.716   3.351  1.00  0.00     0.041 A 
ATOM     15  Cl  UNL     1       6.463  -1.167   4.989  1.00  0.00    -0.084 Cl
ENDBRANCH   6   9
ENDBRANCH   4   6
ENDBRANCH   3   4
ENDBRANCH   2   3
BRANCH   2  16
ATOM     16  O   UNL     1       5.437   5.064   0.127  1.00  0.00    -0.455 OA
BRANCH  16  17
ATOM     17  C   UNL     1       5.633   5.831   1.128  1.00  0.00     0.332 C 
BRANCH  17  18
ATOM     18  C   UNL     1       6.074   5.315   2.438  1.00  0.00     0.254 A 
ATOM     19  N   UNL     1       5.984   5.649   3.700  1.00  0.00    -0.109 NA
ATOM     20  O   UNL     1       6.791   4.190   2.426  1.00  0.00    -0.417 OA
ATOM     21  N   UNL     1       6.650   4.738   4.453  1.00  0.00    -0.108 NA
ATOM     22  C   UNL     1       7.151   3.837   3.647  1.00  0.00     0.247 A 
BRANCH  22  23
ATOM     23  C   UNL     1       7.968   2.611   3.803  1.00  0.00     0.039 A 
ATOM     24  C   UNL     1       8.698   2.209   2.701  1.00  0.00     0.014 A 
ATOM     25  C   UNL     1       8.055   2.075   5.045  1.00  0.00     0.014 A 
ATOM     26  C   UNL     1       9.602   1.160   2.892  1.00  0.00     0.001 A 
ATOM     27  C   UNL     1       8.964   1.032   5.205  1.00  0.00     0.001 A 
ATOM     28  C   UNL     1       9.720   0.590   4.142  1.00  0.00     0.000 A 
ENDBRANCH  22  23
ENDBRANCH  17  18
ENDBRANCH  16  17
ENDBRANCH   2  16
TORSDOF 8
ENDMDL
MODEL 5
REMARK VINA RESULT:      -1.3      3.117      4.274
REMARK SMILES O=C(CNS(=O)(=O)c1ccc(Cl)cc1)OCc1nnc(-c2ccccc2)o1
REMARK SMILES IDX 1 1 2 2 3 3 4 4 5 6 6 7 7 8 8 9 9 10 14 11 10 12 13 13 11 14
REMARK SMILES IDX 12 15 15 16 16 17 17 18 18 19 27 20 19 21 20 22 21 23 22 24
REMARK SMILES IDX 26 25 23 26 25 27 24 28
REMARK H PARENT 4 5
ROOT
ATOM      1  O   UNL     1       3.381   2.128   0.419  1.00  0.00    -0.251 OA
ATOM      2  C   UNL     1       4.166   1.620  -0.387  1.00  0.00     0.321 C 
ENDROOT
BRANCH   2   3
ATOM      3  C   UNL     1       4.757   2.389  -1.583  1.00  0.00     0.221 C 
BRANCH   3   4
ATOM      4  N   UNL     1       4.163   3.677  -1.617  1.00  0.00    -0.200 NA
ATOM      5  H   UNL     1       3.832   3.968  -2.574  1.00  0.00     0.142 HD
BRANCH   4   6
ATOM      6  S   UNL     1       4.775   4.890  -0.658  1.00  0.00     0.241 S 
ATOM      7  O   UNL     1       5.611   5.820  -1.559  1.00  0.00    -0.207 OA
ATOM      8  O   UNL     1       3.512   5.746  -0.266  1.00  0.00    -0.207 OA
BRANCH   6   9
ATOM      9  C   UNL     1       5.686   4.627   0.750  1.00  0.00     0.082 A 
ATOM     10  C   UNL     1       5.930   5.824   1.522  1.00  0.00     0.023 A 
ATOM     11  C   UNL     1       6.183   3.503   1.291  1.00  0.00     0.023 A 
ATOM     12  C   UNL     1       6.597   5.840   2.698  1.00  0.00     0.022 A 
ATOM     13  C   UNL     1       6.866   3.519   2.510  1.00  0.00     0.022 A 
ATOM     14  C   UNL     1       7.082   4.659   3.228  1.00  0.00     0.041 A 
ATOM     15  Cl  UNL     1       7.905   4.751   4.753  1.00  0.00    -0.084 Cl
ENDBRANCH   6   9
ENDBRANCH   4   6
ENDBRANCH   3   4
ENDBRANCH   2   3
BRANCH   2  16
ATOM     16  O   UNL     1       4.534   0.351  -0.294  1.00  0.00    -0.455 OA
BRANCH  16  17
ATOM     17  C   UNL     1       4.900  -0.869  -0.204  1.00  0.00     0.332 C 
BRANCH  17  18
ATOM     18  C   UNL     1       5.920  -1.313   0.766  1.00  0.00     0.254 A 
ATOM     19  N   UNL     1       6.445  -2.435   1.187  1.00  0.00    -0.109 NA
ATOM     20  O   UNL     1       6.526  -0.358   1.475  1.00  0.00    -0.417 OA
ATOM     21  N   UNL     1       7.359  -2.168   2.152  1.00  0.00    -0.108 NA
ATOM     22  C   UNL     1       7.396  -0.871   2.325  1.00  0.00     0.247 A 
BRANCH  22  23
ATOM     23  C   UNL     1       8.145   0.062   3.200  1.00  0.00     0.039 A 
ATOM     24  C   UNL     1       9.142   0.807   2.600  1.00  0.00     0.014 A 
ATOM     25  C   UNL     1       7.696   0.221   4.469  1.00  0.00     0.014 A 
ATOM     26  C   UNL     1       9.731   1.810   3.376  1.00  0.00     0.001 A 
ATOM     27  C   UNL     1       8.302   1.227   5.216  1.00  0.00     0.001 A 
ATOM     28  C   UNL     1       9.300   2.004   4.671  1.00  0.00     0.000 A 
ENDBRANCH  22  23
ENDBRANCH  17  18
ENDBRANCH  16  17
ENDBRANCH   2  16
TORSDOF 8
ENDMDL
MODEL 6
REMARK VINA RESULT:      -1.1      4.001      5.720
REMARK SMILES O=C(CNS(=O)(=O)c1ccc(Cl)cc1)OCc1nnc(-c2ccccc2)o1
REMARK SMILES IDX 1 1 2 2 3 3 4 4 5 6 6 7 7 8 8 9 9 10 14 11 10 12 13 13 11 14
REMARK SMILES IDX 12 15 15 16 16 17 17 18 18 19 27 20 19 21 20 22 21 23 22 24
REMARK SMILES IDX 26 25 23 26 25 27 24 28
REMARK H PARENT 4 5
ROOT
ATOM      1  O   UNL     1       7.042  -1.589   2.449  1.00  0.00    -0.251 OA
ATOM      2  C   UNL     1       8.266  -1.436   2.472  1.00  0.00     0.321 C 
ENDROOT
BRANCH   2   3
ATOM      3  C   UNL     1       9.211  -2.058   1.428  1.00  0.00     0.221 C 
BRANCH   3   4
ATOM      4  N   UNL     1       9.732  -1.013   0.625  1.00  0.00    -0.200 NA
ATOM      5  H   UNL     1      10.724  -0.748   0.860  1.00  0.00     0.142 HD
BRANCH   4   6
ATOM      6  S   UNL     1       8.740   0.236   0.152  1.00  0.00     0.241 S 
ATOM      7  O   UNL     1       9.134   1.481   0.970  1.00  0.00    -0.207 OA
ATOM      8  O   UNL     1       9.203   0.562  -1.318  1.00  0.00    -0.207 OA
BRANCH   6   9
ATOM      9  C   UNL     1       7.044   0.163   0.163  1.00  0.00     0.082 A 
ATOM     10  C   UNL     1       6.449   0.551   1.420  1.00  0.00     0.023 A 
ATOM     11  C   UNL     1       6.160  -0.151  -0.799  1.00  0.00     0.023 A 
ATOM     12  C   UNL     1       5.115   0.607   1.639  1.00  0.00     0.022 A 
ATOM     13  C   UNL     1       4.783  -0.087  -0.576  1.00  0.00     0.022 A 
ATOM     14  C   UNL     1       4.239   0.289   0.618  1.00  0.00     0.041 A 
ATOM     15  Cl  UNL     1       2.542   0.407   0.962  1.00  0.00    -0.084 Cl
ENDBRANCH   6   9
ENDBRANCH   4   6
ENDBRANCH   3   4
ENDBRANCH   2   3
BRANCH   2  16
ATOM     16  O   UNL     1       8.862  -0.740   3.429  1.00  0.00    -0.455 OA
BRANCH  16  17
ATOM     17  C   UNL     1       9.431  -0.061   4.348  1.00  0.00     0.332 C 
BRANCH  17  18
ATOM     18  C   UNL     1       9.161   1.377   4.543  1.00  0.00     0.254 A 
ATOM     19  N   UNL     1       9.671   2.386   5.202  1.00  0.00    -0.109 NA
ATOM     20  O   UNL     1       8.098   1.876   3.909  1.00  0.00    -0.417 OA
ATOM     21  N   UNL     1       8.919   3.492   4.978  1.00  0.00    -0.108 NA
ATOM     22  C   UNL     1       7.940   3.160   4.175  1.00  0.00     0.247 A 
BRANCH  22  23
ATOM     23  C   UNL     1       6.790   3.861   3.556  1.00  0.00     0.039 A 
ATOM     24  C   UNL     1       6.425   5.068   4.120  1.00  0.00     0.014 A 
ATOM     25  C   UNL     1       6.293   3.345   2.406  1.00  0.00     0.014 A 
ATOM     26  C   UNL     1       5.460   5.815   3.439  1.00  0.00     0.001 A 
ATOM     27  C   UNL     1       5.333   4.112   1.750  1.00  0.00     0.001 A 
ATOM     28  C   UNL     1       4.932   5.325   2.264  1.00  0.00     0.000 A 
ENDBRANCH  22  23
ENDBRANCH  17  18
ENDBRANCH  16  17
ENDBRANCH   2  16
TORSDOF 8
ENDMDL
MODEL 7
REMARK VINA RESULT:      -0.5      2.395      3.935
REMARK SMILES O=C(CNS(=O)(=O)c1ccc(Cl)cc1)OCc1nnc(-c2ccccc2)o1
REMARK SMILES IDX 1 1 2 2 3 3 4 4 5 6 6 7 7 8 8 9 9 10 14 11 10 12 13 13 11 14
REMARK SMILES IDX 12 15 15 16 16 17 17 18 18 19 27 20 19 21 20 22 21 23 22 24
REMARK SMILES IDX 26 25 23 26 25 27 24 28
REMARK H PARENT 4 5
ROOT
ATOM      1  O   UNL     1       3.255  -1.645  -0.383  1.00  0.00    -0.251 OA
ATOM      2  C   UNL     1       4.115  -0.771  -0.247  1.00  0.00     0.321 C 
ENDROOT
BRANCH   2   3
ATOM      3  C   UNL     1       5.618  -1.084  -0.124  1.00  0.00     0.221 C 
BRANCH   3   4
ATOM      4  N   UNL     1       5.826  -1.781   1.093  1.00  0.00    -0.200 NA
ATOM      5  H   UNL     1       5.007  -2.373   1.391  1.00  0.00     0.142 HD
BRANCH   4   6
ATOM      6  S   UNL     1       6.684  -1.057   2.321  1.00  0.00     0.241 S 
ATOM      7  O   UNL     1       5.905  -1.283   3.631  1.00  0.00    -0.207 OA
ATOM      8  O   UNL     1       7.976  -1.947   2.467  1.00  0.00    -0.207 OA
BRANCH   6   9
ATOM      9  C   UNL     1       7.168   0.570   2.316  1.00  0.00     0.082 A 
ATOM     10  C   UNL     1       8.359   0.829   3.091  1.00  0.00     0.023 A 
ATOM     11  C   UNL     1       6.664   1.647   1.691  1.00  0.00     0.023 A 
ATOM     12  C   UNL     1       8.944   2.044   3.193  1.00  0.00     0.022 A 
ATOM     13  C   UNL     1       7.272   2.900   1.789  1.00  0.00     0.022 A 
ATOM     14  C   UNL     1       8.402   3.125   2.522  1.00  0.00     0.041 A 
ATOM     15  Cl  UNL     1       9.219   4.648   2.676  1.00  0.00    -0.084 Cl
ENDBRANCH   6   9
ENDBRANCH   4   6
ENDBRANCH   3   4
ENDBRANCH   2   3
BRANCH   2  16
ATOM     16  O   UNL     1       3.797   0.512  -0.165  1.00  0.00    -0.455 OA
BRANCH  16  17
ATOM     17  C   UNL     1       3.479   1.746  -0.084  1.00  0.00     0.332 C 
BRANCH  17  18
ATOM     18  C   UNL     1       4.101   2.775  -0.939  1.00  0.00     0.254 A 
ATOM     19  N   UNL     1       3.789   3.494  -1.986  1.00  0.00    -0.109 NA
ATOM     20  O   UNL     1       5.354   3.125  -0.637  1.00  0.00    -0.417 OA
ATOM     21  N   UNL     1       4.846   4.273  -2.326  1.00  0.00    -0.108 NA
ATOM     22  C   UNL     1       5.815   4.030  -1.481  1.00  0.00     0.247 A 
BRANCH  22  23
ATOM     23  C   UNL     1       7.203   4.514  -1.289  1.00  0.00     0.039 A 
ATOM     24  C   UNL     1       7.388   5.503  -0.342  1.00  0.00     0.014 A 
ATOM     25  C   UNL     1       8.189   3.848  -1.937  1.00  0.00     0.014 A 
ATOM     26  C   UNL     1       8.708   5.840  -0.033  1.00  0.00     0.001 A 
ATOM     27  C   UNL     1       9.495   4.205  -1.607  1.00  0.00     0.001 A 
ATOM     28  C   UNL     1       9.740   5.183  -0.670  1.00  0.00     0.000 A 
ENDBRANCH  22  23
ENDBRANCH  17  18
ENDBRANCH  16  17
ENDBRANCH   2  16
TORSDOF 8
ENDMDL
MODEL 8
REMARK VINA RESULT:      -0.3      3.166      6.053
REMARK SMILES O=C(CNS(=O)(=O)c1ccc(Cl)cc1)OCc1nnc(-c2ccccc2)o1
REMARK SMILES IDX 1 1 2 2 3 3 4 4 5 6 6 7 7 8 8 9 9 10 14 11 10 12 13 13 11 14
REMARK SMILES IDX 12 15 15 16 16 17 17 18 18 19 27 20 19 21 20 22 21 23 22 24
REMARK SMILES IDX 26 25 23 26 25 27 24 28
REMARK H PARENT 4 5
ROOT
ATOM      1  O   UNL     1       7.286   4.803  -2.132  1.00  0.00    -0.251 OA
ATOM      2  C   UNL     1       8.488   4.858  -1.854  1.00  0.00     0.321 C 
ENDROOT
BRANCH   2   3
ATOM      3  C   UNL     1       9.591   4.330  -2.790  1.00  0.00     0.221 C 
BRANCH   3   4
ATOM      4  N   UNL     1       9.306   2.974  -3.089  1.00  0.00    -0.200 NA
ATOM      5  H   UNL     1       8.865   2.829  -4.035  1.00  0.00     0.142 HD
BRANCH   4   6
ATOM      6  S   UNL     1       8.784   1.957  -1.881  1.00  0.00     0.241 S 
ATOM      7  O   UNL     1       9.224   0.527  -2.252  1.00  0.00    -0.207 OA
ATOM      8  O   UNL     1       9.677   2.339  -0.641  1.00  0.00    -0.207 OA
BRANCH   6   9
ATOM      9  C   UNL     1       7.174   1.849  -1.352  1.00  0.00     0.082 A 
ATOM     10  C   UNL     1       7.030   1.312  -0.020  1.00  0.00     0.023 A 
ATOM     11  C   UNL     1       6.020   2.210  -1.936  1.00  0.00     0.023 A 
ATOM     12  C   UNL     1       5.844   1.177   0.616  1.00  0.00     0.022 A 
ATOM     13  C   UNL     1       4.795   2.078  -1.278  1.00  0.00     0.022 A 
ATOM     14  C   UNL     1       4.679   1.573  -0.014  1.00  0.00     0.041 A 
ATOM     15  Cl  UNL     1       3.197   1.395   0.869  1.00  0.00    -0.084 Cl
ENDBRANCH   6   9
ENDBRANCH   4   6
ENDBRANCH   3   4
ENDBRANCH   2   3
BRANCH   2  16
ATOM     16  O   UNL     1       8.914   5.354  -0.703  1.00  0.00    -0.455 OA
BRANCH  16  17
ATOM     17  C   UNL     1       9.325   5.843   0.403  1.00  0.00     0.332 C 
BRANCH  17  18
ATOM     18  C   UNL     1       8.842   5.351   1.707  1.00  0.00     0.254 A 
ATOM     19  N   UNL     1       8.344   5.842   2.813  1.00  0.00    -0.109 NA
ATOM     20  O   UNL     1       8.907   4.033   1.910  1.00  0.00    -0.417 OA
ATOM     21  N   UNL     1       8.115   4.832   3.688  1.00  0.00    -0.108 NA
ATOM     22  C   UNL     1       8.474   3.712   3.115  1.00  0.00     0.247 A 
BRANCH  22  23
ATOM     23  C   UNL     1       8.496   2.281   3.501  1.00  0.00     0.039 A 
ATOM     24  C   UNL     1       9.689   1.792   3.997  1.00  0.00     0.014 A 
ATOM     25  C   UNL     1       7.316   1.614   3.483  1.00  0.00     0.014 A 
ATOM     26  C   UNL     1       9.668   0.498   4.525  1.00  0.00     0.001 A 
ATOM     27  C   UNL     1       7.327   0.327   4.015  1.00  0.00     0.001 A 
ATOM     28  C   UNL     1       8.487  -0.213   4.526  1.00  0.00     0.000 A 
ENDBRANCH  22  23
ENDBRANCH  17  18
ENDBRANCH  16  17
ENDBRANCH   2  16
TORSDOF 8
ENDMDL
