MODEL 1
REMARK VINA RESULT:      -4.8      0.000      0.000
REMARK SMILES Fc1ccccc1-n1cnc(Br)c1
REMARK SMILES IDX 1 1 2 2 3 3 4 4 5 5 6 6 7 7 8 8 9 9 13 10 10 11 11 12 12 13
REMARK H PARENT
ROOT
ATOM      1  F   UNL     1       4.668   2.545  -2.044  1.00  0.00    -0.205 F 
ATOM      2  C   UNL     1       4.524   3.517  -1.123  1.00  0.00     0.147 A 
ATOM      3  C   UNL     1       4.347   4.846  -1.455  1.00  0.00     0.041 A 
ATOM      4  C   UNL     1       4.199   5.845  -0.526  1.00  0.00     0.003 A 
ATOM      5  C   UNL     1       4.225   5.528   0.819  1.00  0.00     0.002 A 
ATOM      6  C   UNL     1       4.400   4.211   1.150  1.00  0.00     0.030 A 
ATOM      7  C   UNL     1       4.549   3.201   0.219  1.00  0.00     0.082 A 
ENDROOT
BRANCH   7   8
ATOM      8  N   UNL     1       4.723   1.877   0.702  1.00  0.00    -0.302 N 
ATOM      9  C   UNL     1       3.891   0.824   0.660  1.00  0.00     0.205 A 
ATOM     10  C   UNL     1       5.880   1.501   1.326  1.00  0.00     0.129 A 
ATOM     11  N   UNL     1       4.532  -0.198   1.256  1.00  0.00    -0.229 NA
ATOM     12  C   UNL     1       5.749   0.174   1.676  1.00  0.00     0.124 A 
ATOM     13  Br  UNL     1       7.088  -0.844   2.575  1.00  0.00    -0.027 Br
ENDBRANCH   7   8
TORSDOF 1
ENDMDL
MODEL 2
REMARK VINA RESULT:      -4.5      1.075      1.174
REMARK SMILES Fc1ccccc1-n1cnc(Br)c1
REMARK SMILES IDX 1 1 2 2 3 3 4 4 5 5 6 6 7 7 8 8 9 9 13 10 10 11 11 12 12 13
REMARK H PARENT
ROOT
ATOM      1  F   UNL     1       4.859   1.182  -1.549  1.00  0.00    -0.205 F 
ATOM      2  C   UNL     1       4.785   2.384  -0.947  1.00  0.00     0.147 A 
ATOM      3  C   UNL     1       4.501   3.550  -1.631  1.00  0.00     0.041 A 
ATOM      4  C   UNL     1       4.423   4.781  -1.029  1.00  0.00     0.003 A 
ATOM      5  C   UNL     1       4.636   4.883   0.333  1.00  0.00     0.002 A 
ATOM      6  C   UNL     1       4.918   3.728   1.012  1.00  0.00     0.030 A 
ATOM      7  C   UNL     1       4.997   2.487   0.411  1.00  0.00     0.082 A 
ENDROOT
BRANCH   7   8
ATOM      8  N   UNL     1       5.298   1.371   1.237  1.00  0.00    -0.302 N 
ATOM      9  C   UNL     1       4.642   0.210   1.395  1.00  0.00     0.205 A 
ATOM     10  C   UNL     1       6.403   1.366   2.041  1.00  0.00     0.129 A 
ATOM     11  N   UNL     1       5.341  -0.509   2.293  1.00  0.00    -0.229 NA
ATOM     12  C   UNL     1       6.423   0.162   2.712  1.00  0.00     0.124 A 
ATOM     13  Br  UNL     1       7.764  -0.355   3.965  1.00  0.00    -0.027 Br
ENDBRANCH   7   8
TORSDOF 1
ENDMDL
MODEL 3
REMARK VINA RESULT:      -4.5      1.320      1.862
REMARK SMILES Fc1ccccc1-n1cnc(Br)c1
REMARK SMILES IDX 1 1 2 2 3 3 4 4 5 5 6 6 7 7 8 8 9 9 13 10 10 11 11 12 12 13
REMARK H PARENT
ROOT
ATOM      1  F   UNL     1       4.520   4.189   2.314  1.00  0.00    -0.205 F 
ATOM      2  C   UNL     1       4.470   4.316   0.974  1.00  0.00     0.147 A 
ATOM      3  C   UNL     1       4.298   5.532   0.341  1.00  0.00     0.041 A 
ATOM      4  C   UNL     1       4.245   5.674  -1.023  1.00  0.00     0.003 A 
ATOM      5  C   UNL     1       4.368   4.556  -1.826  1.00  0.00     0.002 A 
ATOM      6  C   UNL     1       4.539   3.350  -1.200  1.00  0.00     0.030 A 
ATOM      7  C   UNL     1       4.593   3.201   0.173  1.00  0.00     0.082 A 
ENDROOT
BRANCH   7   8
ATOM      8  N   UNL     1       4.774   1.890   0.689  1.00  0.00    -0.302 N 
ATOM      9  C   UNL     1       3.910   0.867   0.773  1.00  0.00     0.205 A 
ATOM     10  C   UNL     1       5.976   1.497   1.207  1.00  0.00     0.129 A 
ATOM     11  N   UNL     1       4.576  -0.155   1.342  1.00  0.00    -0.229 NA
ATOM     12  C   UNL     1       5.841   0.189   1.622  1.00  0.00     0.124 A 
ATOM     13  Br  UNL     1       7.232  -0.841   2.421  1.00  0.00    -0.027 Br
ENDBRANCH   7   8
TORSDOF 1
ENDMDL
MODEL 4
REMARK VINA RESULT:      -4.5      3.415      3.935
REMARK SMILES Fc1ccccc1-n1cnc(Br)c1
REMARK SMILES IDX 1 1 2 2 3 3 4 4 5 5 6 6 7 7 8 8 9 9 13 10 10 11 11 12 12 13
REMARK H PARENT
ROOT
ATOM      1  F   UNL     1       7.243   0.550  -0.715  1.00  0.00    -0.205 F 
ATOM      2  C   UNL     1       5.967   0.479  -0.291  1.00  0.00     0.147 A 
ATOM      3  C   UNL     1       4.885   0.642  -1.134  1.00  0.00     0.041 A 
ATOM      4  C   UNL     1       3.580   0.570  -0.714  1.00  0.00     0.003 A 
ATOM      5  C   UNL     1       3.311   0.325   0.619  1.00  0.00     0.002 A 
ATOM      6  C   UNL     1       4.382   0.163   1.456  1.00  0.00     0.030 A 
ATOM      7  C   UNL     1       5.697   0.233   1.039  1.00  0.00     0.082 A 
ENDROOT
BRANCH   7   8
ATOM      8  N   UNL     1       6.711   0.046   2.015  1.00  0.00    -0.302 N 
ATOM      9  C   UNL     1       7.483  -1.024   2.267  1.00  0.00     0.205 A 
ATOM     10  C   UNL     1       7.039   1.043   2.891  1.00  0.00     0.129 A 
ATOM     11  N   UNL     1       8.285  -0.688   3.295  1.00  0.00    -0.229 NA
ATOM     12  C   UNL     1       8.045   0.565   3.705  1.00  0.00     0.124 A 
ATOM     13  Br  UNL     1       8.867   1.565   5.105  1.00  0.00    -0.027 Br
ENDBRANCH   7   8
TORSDOF 1
ENDMDL
MODEL 5
REMARK VINA RESULT:      -4.4      2.461      3.526
REMARK SMILES Fc1ccccc1-n1cnc(Br)c1
REMARK SMILES IDX 1 1 2 2 3 3 4 4 5 5 6 6 7 7 8 8 9 9 13 10 10 11 11 12 12 13
REMARK H PARENT
ROOT
ATOM      1  F   UNL     1       5.972   3.250  -0.428  1.00  0.00    -0.205 F 
ATOM      2  C   UNL     1       5.213   2.151  -0.253  1.00  0.00     0.147 A 
ATOM      3  C   UNL     1       4.332   1.688  -1.212  1.00  0.00     0.041 A 
ATOM      4  C   UNL     1       3.553   0.570  -1.046  1.00  0.00     0.003 A 
ATOM      5  C   UNL     1       3.637  -0.145   0.134  1.00  0.00     0.002 A 
ATOM      6  C   UNL     1       4.510   0.313   1.084  1.00  0.00     0.030 A 
ATOM      7  C   UNL     1       5.297   1.437   0.923  1.00  0.00     0.082 A 
ENDROOT
BRANCH   7   8
ATOM      8  N   UNL     1       6.159   1.800   1.991  1.00  0.00    -0.302 N 
ATOM      9  C   UNL     1       6.402   3.002   2.537  1.00  0.00     0.205 A 
ATOM     10  C   UNL     1       6.908   0.860   2.642  1.00  0.00     0.129 A 
ATOM     11  N   UNL     1       7.300   2.805   3.521  1.00  0.00    -0.229 NA
ATOM     12  C   UNL     1       7.634   1.511   3.618  1.00  0.00     0.124 A 
ATOM     13  Br  UNL     1       8.844   0.654   4.817  1.00  0.00    -0.027 Br
ENDBRANCH   7   8
TORSDOF 1
ENDMDL
MODEL 6
REMARK VINA RESULT:      -4.4      2.768      3.899
REMARK SMILES Fc1ccccc1-n1cnc(Br)c1
REMARK SMILES IDX 1 1 2 2 3 3 4 4 5 5 6 6 7 7 8 8 9 9 13 10 10 11 11 12 12 13
REMARK H PARENT
ROOT
ATOM      1  F   UNL     1       4.822  -0.332   2.270  1.00  0.00    -0.205 F 
ATOM      2  C   UNL     1       4.657   0.359   1.126  1.00  0.00     0.147 A 
ATOM      3  C   UNL     1       3.886  -0.101   0.075  1.00  0.00     0.041 A 
ATOM      4  C   UNL     1       3.710   0.594  -1.095  1.00  0.00     0.003 A 
ATOM      5  C   UNL     1       4.328   1.820  -1.254  1.00  0.00     0.002 A 
ATOM      6  C   UNL     1       5.093   2.277  -0.214  1.00  0.00     0.030 A 
ATOM      7  C   UNL     1       5.273   1.582   0.966  1.00  0.00     0.082 A 
ENDROOT
BRANCH   7   8
ATOM      8  N   UNL     1       6.093   2.174   1.963  1.00  0.00    -0.302 N 
ATOM      9  C   UNL     1       6.076   3.416   2.473  1.00  0.00     0.205 A 
ATOM     10  C   UNL     1       7.091   1.462   2.569  1.00  0.00     0.129 A 
ATOM     11  N   UNL     1       7.060   3.470   3.391  1.00  0.00    -0.229 NA
ATOM     12  C   UNL     1       7.703   2.298   3.479  1.00  0.00     0.124 A 
ATOM     13  Br  UNL     1       9.164   1.795   4.596  1.00  0.00    -0.027 Br
ENDBRANCH   7   8
TORSDOF 1
ENDMDL
MODEL 7
REMARK VINA RESULT:      -4.4      3.100      4.208
REMARK SMILES Fc1ccccc1-n1cnc(Br)c1
REMARK SMILES IDX 1 1 2 2 3 3 4 4 5 5 6 6 7 7 8 8 9 9 13 10 10 11 11 12 12 13
REMARK H PARENT
ROOT
ATOM      1  F   UNL     1       4.857  -0.360   2.277  1.00  0.00    -0.205 F 
ATOM      2  C   UNL     1       4.675   0.337   1.139  1.00  0.00     0.147 A 
ATOM      3  C   UNL     1       3.901  -0.124   0.092  1.00  0.00     0.041 A 
ATOM      4  C   UNL     1       3.708   0.577  -1.072  1.00  0.00     0.003 A 
ATOM      5  C   UNL     1       4.310   1.811  -1.228  1.00  0.00     0.002 A 
ATOM      6  C   UNL     1       5.078   2.269  -0.190  1.00  0.00     0.030 A 
ATOM      7  C   UNL     1       5.275   1.568   0.984  1.00  0.00     0.082 A 
ENDROOT
BRANCH   7   8
ATOM      8  N   UNL     1       6.097   2.163   1.978  1.00  0.00    -0.302 N 
ATOM      9  C   UNL     1       6.979   1.601   2.821  1.00  0.00     0.205 A 
ATOM     10  C   UNL     1       6.069   3.511   2.202  1.00  0.00     0.129 A 
ATOM     11  N   UNL     1       7.494   2.600   3.562  1.00  0.00    -0.229 NA
ATOM     12  C   UNL     1       6.964   3.781   3.215  1.00  0.00     0.124 A 
ATOM     13  Br  UNL     1       7.312   5.521   3.914  1.00  0.00    -0.027 Br
ENDBRANCH   7   8
TORSDOF 1
ENDMDL
MODEL 8
REMARK VINA RESULT:      -4.4      2.696      3.763
REMARK SMILES Fc1ccccc1-n1cnc(Br)c1
REMARK SMILES IDX 1 1 2 2 3 3 4 4 5 5 6 6 7 7 8 8 9 9 13 10 10 11 11 12 12 13
REMARK H PARENT
ROOT
ATOM      1  F   UNL     1       6.713   2.681  -0.063  1.00  0.00    -0.205 F 
ATOM      2  C   UNL     1       5.759   1.733  -0.144  1.00  0.00     0.147 A 
ATOM      3  C   UNL     1       4.635   1.865  -0.936  1.00  0.00     0.041 A 
ATOM      4  C   UNL     1       3.657   0.907  -1.027  1.00  0.00     0.003 A 
ATOM      5  C   UNL     1       3.781  -0.260  -0.297  1.00  0.00     0.002 A 
ATOM      6  C   UNL     1       4.895  -0.392   0.489  1.00  0.00     0.030 A 
ATOM      7  C   UNL     1       5.883   0.569   0.584  1.00  0.00     0.082 A 
ENDROOT
BRANCH   7   8
ATOM      8  N   UNL     1       6.986   0.301   1.438  1.00  0.00    -0.302 N 
ATOM      9  C   UNL     1       8.262   0.009   1.138  1.00  0.00     0.205 A 
ATOM     10  C   UNL     1       6.844   0.315   2.798  1.00  0.00     0.129 A 
ATOM     11  N   UNL     1       8.905  -0.157   2.309  1.00  0.00    -0.229 NA
ATOM     12  C   UNL     1       8.075   0.021   3.346  1.00  0.00     0.124 A 
ATOM     13  Br  UNL     1       8.426  -0.086   5.217  1.00  0.00    -0.027 Br
ENDBRANCH   7   8
TORSDOF 1
ENDMDL
MODEL 9
REMARK VINA RESULT:      -4.4      3.337      4.715
REMARK SMILES Fc1ccccc1-n1cnc(Br)c1
REMARK SMILES IDX 1 1 2 2 3 3 4 4 5 5 6 6 7 7 8 8 9 9 13 10 10 11 11 12 12 13
REMARK H PARENT
ROOT
ATOM      1  F   UNL     1       4.235   2.991  -1.720  1.00  0.00    -0.205 F 
ATOM      2  C   UNL     1       4.575   1.881  -1.037  1.00  0.00     0.147 A 
ATOM      3  C   UNL     1       3.730   0.796  -0.899  1.00  0.00     0.041 A 
ATOM      4  C   UNL     1       4.065  -0.340  -0.206  1.00  0.00     0.003 A 
ATOM      5  C   UNL     1       5.307  -0.426   0.394  1.00  0.00     0.002 A 
ATOM      6  C   UNL     1       6.145   0.648   0.258  1.00  0.00     0.030 A 
ATOM      7  C   UNL     1       5.813   1.794  -0.438  1.00  0.00     0.082 A 
ENDROOT
BRANCH   7   8
ATOM      8  N   UNL     1       6.780   2.833  -0.499  1.00  0.00    -0.302 N 
ATOM      9  C   UNL     1       7.126   3.748   0.420  1.00  0.00     0.205 A 
ATOM     10  C   UNL     1       7.536   3.027  -1.622  1.00  0.00     0.129 A 
ATOM     11  N   UNL     1       8.093   4.504  -0.132  1.00  0.00    -0.229 NA
ATOM     12  C   UNL     1       8.372   4.097  -1.378  1.00  0.00     0.124 A 
ATOM     13  Br  UNL     1       9.639   4.784  -2.627  1.00  0.00    -0.027 Br
ENDBRANCH   7   8
TORSDOF 1
ENDMDL
