MODEL 1
REMARK VINA RESULT:       2.0      0.000      0.000
REMARK SMILES O=C(c1ccccc1F)N1CCN(C(=O)C2COc3ccccc3O2)CC1
REMARK SMILES IDX 1 1 2 2 10 3 11 4 12 5 13 6 14 7 15 8 26 9 27 10 3 11 4 12
REMARK SMILES IDX 8 13 5 14 7 15 6 16 9 17 16 18 17 19 25 20 18 21 24 22 19 23
REMARK SMILES IDX 23 24 20 25 22 26 21 27
REMARK H PARENT
ROOT
ATOM      1  O   UNL     1       5.641  -0.816   2.571  1.00  0.00    -0.269 OA
ATOM      2  C   UNL     1       6.737  -0.411   3.008  1.00  0.00     0.256 C 
ATOM      3  N   UNL     1       6.960   0.985   3.048  1.00  0.00    -0.335 N 
ATOM      4  C   UNL     1       5.929   1.891   2.587  1.00  0.00     0.141 C 
ATOM      5  C   UNL     1       6.515   2.670   1.404  1.00  0.00     0.141 C 
ATOM      6  N   UNL     1       7.789   3.264   1.813  1.00  0.00    -0.336 N 
ATOM      7  C   UNL     1       8.068   4.646   1.657  1.00  0.00     0.267 C 
ATOM      8  O   UNL     1       9.179   5.120   2.032  1.00  0.00    -0.270 OA
ATOM      9  C   UNL     1       8.784   2.390   2.389  1.00  0.00     0.141 C 
ATOM     10  C   UNL     1       8.190   1.589   3.533  1.00  0.00     0.141 C 
ENDROOT
BRANCH   2  11
ATOM     11  C   UNL     1       7.748  -1.359   3.462  1.00  0.00     0.075 A 
ATOM     12  C   UNL     1       7.831  -1.799   4.770  1.00  0.00     0.017 A 
ATOM     13  C   UNL     1       8.644  -1.813   2.508  1.00  0.00     0.135 A 
ATOM     14  C   UNL     1       8.842  -2.707   5.085  1.00  0.00     0.001 A 
ATOM     15  C   UNL     1       9.651  -2.712   2.795  1.00  0.00     0.040 A 
ATOM     16  C   UNL     1       9.722  -3.145   4.117  1.00  0.00     0.003 A 
ATOM     17  F   UNL     1       8.563  -1.381   1.219  1.00  0.00    -0.206 F 
ENDBRANCH   2  11
BRANCH   7  18
ATOM     18  C   UNL     1       7.107   5.612   1.060  1.00  0.00     0.299 C 
ATOM     19  C   UNL     1       5.907   5.647   1.970  1.00  0.00     0.285 C 
ATOM     20  O   UNL     1       6.744   5.188  -0.261  1.00  0.00    -0.473 OA
ATOM     21  O   UNL     1       4.749   5.044   1.387  1.00  0.00    -0.485 OA
ATOM     22  C   UNL     1       5.502   5.389  -0.816  1.00  0.00     0.162 A 
ATOM     23  C   UNL     1       4.415   5.314   0.066  1.00  0.00     0.161 A 
ATOM     24  C   UNL     1       5.322   5.647  -2.143  1.00  0.00     0.050 A 
ATOM     25  C   UNL     1       3.124   5.497  -0.372  1.00  0.00     0.050 A 
ATOM     26  C   UNL     1       4.016   5.837  -2.606  1.00  0.00     0.004 A 
ATOM     27  C   UNL     1       2.947   5.760  -1.727  1.00  0.00     0.004 A 
ENDBRANCH   7  18
TORSDOF 2
ENDMDL
