MODEL 1
REMARK VINA RESULT:      -5.3      0.000      0.000
REMARK SMILES Nc1ccc(=NC(=O)c2ccc(Cl)cc2)[nH]c1
REMARK SMILES IDX 6 1 5 2 2 3 3 4 17 5 4 6 16 7 1 9 7 12 8 13 9 14 10 15 15 16
REMARK SMILES IDX 11 17 14 18 12 19 13 20
REMARK H PARENT 16 8 1 10 1 11
ROOT
ATOM      1  N   UNL     1       5.268  -0.663   0.654  1.00  0.00    -0.191 NA
ENDROOT
BRANCH   1   2
ATOM      2  C   UNL     1       6.359  -0.528   1.328  1.00  0.00     0.134 A 
ATOM      3  C   UNL     1       8.590  -0.249   2.927  1.00  0.00     0.048 A 
ATOM      4  C   UNL     1       7.344  -0.384   3.531  1.00  0.00     0.031 A 
ATOM      5  C   UNL     1       8.676  -0.260   1.550  1.00  0.00     0.109 A 
ATOM      6  C   UNL     1       6.216  -0.525   2.717  1.00  0.00     0.049 A 
ATOM      7  N   UNL     1       7.572  -0.398   0.761  1.00  0.00    -0.345 N 
ATOM      8  H   UNL     1       7.643  -0.405  -0.281  1.00  0.00     0.168 HD
BRANCH   3   9
ATOM      9  N   UNL     1       9.735  -0.106   3.761  1.00  0.00    -0.398 N 
ATOM     10  H   UNL     1      10.581   0.419   3.430  1.00  0.00     0.156 HD
ATOM     11  H   UNL     1       9.749  -0.531   4.736  1.00  0.00     0.156 HD
ENDBRANCH   3   9
ENDBRANCH   1   2
BRANCH   1  12
ATOM     12  C   UNL     1       4.173   0.229   0.680  1.00  0.00     0.278 C 
ATOM     13  O   UNL     1       3.034  -0.110   1.142  1.00  0.00    -0.267 OA
BRANCH  12  14
ATOM     14  C   UNL     1       4.392   1.579   0.152  1.00  0.00     0.042 A 
ATOM     15  C   UNL     1       4.502   1.840  -1.199  1.00  0.00     0.015 A 
ATOM     16  C   UNL     1       4.488   2.611   1.061  1.00  0.00     0.015 A 
ATOM     17  C   UNL     1       4.708   3.153  -1.591  1.00  0.00     0.021 A 
ATOM     18  C   UNL     1       4.695   3.929   0.683  1.00  0.00     0.021 A 
ATOM     19  C   UNL     1       4.806   4.191  -0.685  1.00  0.00     0.041 A 
ATOM     20  Cl  UNL     1       5.068   5.847  -1.205  1.00  0.00    -0.084 Cl
ENDBRANCH  12  14
ENDBRANCH   1  12
TORSDOF 4
ENDMDL
MODEL 2
REMARK VINA RESULT:      -5.2      0.214      1.179
REMARK SMILES Nc1ccc(=NC(=O)c2ccc(Cl)cc2)[nH]c1
REMARK SMILES IDX 6 1 5 2 2 3 3 4 17 5 4 6 16 7 1 9 7 12 8 13 9 14 10 15 15 16
REMARK SMILES IDX 11 17 14 18 12 19 13 20
REMARK H PARENT 16 8 1 10 1 11
ROOT
ATOM      1  N   UNL     1       5.088  -0.636   0.793  1.00  0.00    -0.191 NA
ENDROOT
BRANCH   1   2
ATOM      2  C   UNL     1       6.183  -0.515   1.464  1.00  0.00     0.134 A 
ATOM      3  C   UNL     1       8.423  -0.266   3.055  1.00  0.00     0.048 A 
ATOM      4  C   UNL     1       7.180  -0.405   3.663  1.00  0.00     0.031 A 
ATOM      5  C   UNL     1       8.502  -0.258   1.677  1.00  0.00     0.109 A 
ATOM      6  C   UNL     1       6.048  -0.530   2.853  1.00  0.00     0.049 A 
ATOM      7  N   UNL     1       7.394  -0.381   0.893  1.00  0.00    -0.345 N 
ATOM      8  H   UNL     1       7.459  -0.374  -0.150  1.00  0.00     0.168 HD
BRANCH   3   9
ATOM      9  N   UNL     1       9.573  -0.139   3.885  1.00  0.00    -0.398 N 
ATOM     10  H   UNL     1      10.103   0.765   3.938  1.00  0.00     0.156 HD
ATOM     11  H   UNL     1       9.912  -0.963   4.466  1.00  0.00     0.156 HD
ENDBRANCH   3   9
ENDBRANCH   1   2
BRANCH   1  12
ATOM     12  C   UNL     1       4.038   0.308   0.760  1.00  0.00     0.278 C 
ATOM     13  O   UNL     1       2.845   0.006   1.092  1.00  0.00    -0.267 OA
BRANCH  12  14
ATOM     14  C   UNL     1       4.370   1.669   0.327  1.00  0.00     0.042 A 
ATOM     15  C   UNL     1       4.617   2.693   1.219  1.00  0.00     0.015 A 
ATOM     16  C   UNL     1       4.431   1.909  -1.029  1.00  0.00     0.015 A 
ATOM     17  C   UNL     1       4.923   3.942   0.702  1.00  0.00     0.021 A 
ATOM     18  C   UNL     1       4.735   3.153  -1.560  1.00  0.00     0.021 A 
ATOM     19  C   UNL     1       4.985   4.189  -0.656  1.00  0.00     0.041 A 
ATOM     20  Cl  UNL     1       5.372   5.780  -1.288  1.00  0.00    -0.084 Cl
ENDBRANCH  12  14
ENDBRANCH   1  12
TORSDOF 4
ENDMDL
MODEL 3
REMARK VINA RESULT:      -4.8      1.262      1.708
REMARK SMILES Nc1ccc(=NC(=O)c2ccc(Cl)cc2)[nH]c1
REMARK SMILES IDX 6 1 5 2 2 3 3 4 17 5 4 6 16 7 1 9 7 12 8 13 9 14 10 15 15 16
REMARK SMILES IDX 11 17 14 18 12 19 13 20
REMARK H PARENT 16 8 1 10 1 11
ROOT
ATOM      1  N   UNL     1       5.491  -0.585   1.205  1.00  0.00    -0.191 NA
ENDROOT
BRANCH   1   2
ATOM      2  C   UNL     1       6.484  -0.675   2.022  1.00  0.00     0.134 A 
ATOM      3  C   UNL     1       8.495  -0.802   3.906  1.00  0.00     0.048 A 
ATOM      4  C   UNL     1       7.242  -0.336   4.292  1.00  0.00     0.031 A 
ATOM      5  C   UNL     1       8.697  -1.187   2.596  1.00  0.00     0.109 A 
ATOM      6  C   UNL     1       6.226  -0.274   3.334  1.00  0.00     0.049 A 
ATOM      7  N   UNL     1       7.701  -1.124   1.667  1.00  0.00    -0.345 N 
ATOM      8  H   UNL     1       7.859  -1.416   0.677  1.00  0.00     0.168 HD
BRANCH   3   9
ATOM      9  N   UNL     1       9.526  -0.864   4.886  1.00  0.00    -0.398 N 
ATOM     10  H   UNL     1      10.376  -0.253   4.814  1.00  0.00     0.156 HD
ATOM     11  H   UNL     1       9.449  -1.534   5.709  1.00  0.00     0.156 HD
ENDBRANCH   3   9
ENDBRANCH   1   2
BRANCH   1  12
ATOM     12  C   UNL     1       5.521   0.056  -0.054  1.00  0.00     0.278 C 
ATOM     13  O   UNL     1       5.842  -0.563  -1.122  1.00  0.00    -0.267 OA
BRANCH  12  14
ATOM     14  C   UNL     1       5.165   1.478  -0.095  1.00  0.00     0.042 A 
ATOM     15  C   UNL     1       5.072   2.253   1.043  1.00  0.00     0.015 A 
ATOM     16  C   UNL     1       4.917   2.037  -1.330  1.00  0.00     0.015 A 
ATOM     17  C   UNL     1       4.728   3.587   0.892  1.00  0.00     0.021 A 
ATOM     18  C   UNL     1       4.571   3.370  -1.496  1.00  0.00     0.021 A 
ATOM     19  C   UNL     1       4.478   4.154  -0.343  1.00  0.00     0.041 A 
ATOM     20  Cl  UNL     1       4.043   5.846  -0.511  1.00  0.00    -0.084 Cl
ENDBRANCH  12  14
ENDBRANCH   1  12
TORSDOF 4
ENDMDL
MODEL 4
REMARK VINA RESULT:      -4.7      0.847      1.254
REMARK SMILES Nc1ccc(=NC(=O)c2ccc(Cl)cc2)[nH]c1
REMARK SMILES IDX 6 1 5 2 2 3 3 4 17 5 4 6 16 7 1 9 7 12 8 13 9 14 10 15 15 16
REMARK SMILES IDX 11 17 14 18 12 19 13 20
REMARK H PARENT 16 8 1 10 1 11
ROOT
ATOM      1  N   UNL     1       5.150  -0.601   1.152  1.00  0.00    -0.191 NA
ENDROOT
BRANCH   1   2
ATOM      2  C   UNL     1       6.198  -0.259   1.822  1.00  0.00     0.134 A 
ATOM      3  C   UNL     1       8.531   0.484   3.091  1.00  0.00     0.048 A 
ATOM      4  C   UNL     1       8.531   0.361   1.706  1.00  0.00     0.031 A 
ATOM      5  C   UNL     1       7.368   0.233   3.791  1.00  0.00     0.109 A 
ATOM      6  C   UNL     1       7.346  -0.015   1.067  1.00  0.00     0.049 A 
ATOM      7  N   UNL     1       6.216  -0.134   3.161  1.00  0.00    -0.345 N 
ATOM      8  H   UNL     1       5.338  -0.323   3.695  1.00  0.00     0.168 HD
BRANCH   3   9
ATOM      9  N   UNL     1       9.740   0.869   3.738  1.00  0.00    -0.398 N 
ATOM     10  H   UNL     1       9.958   1.879   3.919  1.00  0.00     0.156 HD
ATOM     11  H   UNL     1      10.443   0.133   4.048  1.00  0.00     0.156 HD
ENDBRANCH   3   9
ENDBRANCH   1   2
BRANCH   1  12
ATOM     12  C   UNL     1       4.040   0.230   0.885  1.00  0.00     0.278 C 
ATOM     13  O   UNL     1       2.843  -0.144   1.115  1.00  0.00    -0.267 OA
BRANCH  12  14
ATOM     14  C   UNL     1       4.312   1.559   0.328  1.00  0.00     0.042 A 
ATOM     15  C   UNL     1       4.626   1.758  -1.001  1.00  0.00     0.015 A 
ATOM     16  C   UNL     1       4.246   2.636   1.187  1.00  0.00     0.015 A 
ATOM     17  C   UNL     1       4.865   3.056  -1.423  1.00  0.00     0.021 A 
ATOM     18  C   UNL     1       4.484   3.939   0.778  1.00  0.00     0.021 A 
ATOM     19  C   UNL     1       4.801   4.138  -0.568  1.00  0.00     0.041 A 
ATOM     20  Cl  UNL     1       5.109   5.774  -1.125  1.00  0.00    -0.084 Cl
ENDBRANCH  12  14
ENDBRANCH   1  12
TORSDOF 4
ENDMDL
MODEL 5
REMARK VINA RESULT:      -4.5      3.060      5.617
REMARK SMILES Nc1ccc(=NC(=O)c2ccc(Cl)cc2)[nH]c1
REMARK SMILES IDX 6 1 5 2 2 3 3 4 17 5 4 6 16 7 1 9 7 12 8 13 9 14 10 15 15 16
REMARK SMILES IDX 11 17 14 18 12 19 13 20
REMARK H PARENT 16 8 1 10 1 11
ROOT
ATOM      1  N   UNL     1       4.209   0.600   0.302  1.00  0.00    -0.191 NA
ENDROOT
BRANCH   1   2
ATOM      2  C   UNL     1       4.387   1.852   0.050  1.00  0.00     0.134 A 
ATOM      3  C   UNL     1       4.779   4.485  -0.673  1.00  0.00     0.048 A 
ATOM      4  C   UNL     1       4.740   3.515  -1.669  1.00  0.00     0.031 A 
ATOM      5  C   UNL     1       4.620   4.106   0.644  1.00  0.00     0.109 A 
ATOM      6  C   UNL     1       4.541   2.182  -1.298  1.00  0.00     0.049 A 
ATOM      7  N   UNL     1       4.427   2.804   0.999  1.00  0.00    -0.345 N 
ATOM      8  H   UNL     1       4.307   2.523   1.998  1.00  0.00     0.168 HD
BRANCH   3   9
ATOM      9  N   UNL     1       4.981   5.842  -1.057  1.00  0.00    -0.398 N 
ATOM     10  H   UNL     1       4.403   6.280  -1.815  1.00  0.00     0.156 HD
ATOM     11  H   UNL     1       5.724   6.433  -0.577  1.00  0.00     0.156 HD
ENDBRANCH   3   9
ENDBRANCH   1   2
BRANCH   1  12
ATOM     12  C   UNL     1       5.229  -0.372   0.388  1.00  0.00     0.278 C 
ATOM     13  O   UNL     1       5.310  -1.344  -0.434  1.00  0.00    -0.267 OA
BRANCH  12  14
ATOM     14  C   UNL     1       6.209  -0.227   1.469  1.00  0.00     0.042 A 
ATOM     15  C   UNL     1       5.910  -0.511   2.786  1.00  0.00     0.015 A 
ATOM     16  C   UNL     1       7.471   0.213   1.130  1.00  0.00     0.015 A 
ATOM     17  C   UNL     1       6.911  -0.339   3.729  1.00  0.00     0.021 A 
ATOM     18  C   UNL     1       8.481   0.390   2.063  1.00  0.00     0.021 A 
ATOM     19  C   UNL     1       8.177   0.102   3.396  1.00  0.00     0.041 A 
ATOM     20  Cl  UNL     1       9.429   0.314   4.608  1.00  0.00    -0.084 Cl
ENDBRANCH  12  14
ENDBRANCH   1  12
TORSDOF 4
ENDMDL
MODEL 6
REMARK VINA RESULT:      -4.4      1.354      1.637
REMARK SMILES Nc1ccc(=NC(=O)c2ccc(Cl)cc2)[nH]c1
REMARK SMILES IDX 6 1 5 2 2 3 3 4 17 5 4 6 16 7 1 9 7 12 8 13 9 14 10 15 15 16
REMARK SMILES IDX 11 17 14 18 12 19 13 20
REMARK H PARENT 16 8 1 10 1 11
ROOT
ATOM      1  N   UNL     1       5.235  -0.422   1.704  1.00  0.00    -0.191 NA
ENDROOT
BRANCH   1   2
ATOM      2  C   UNL     1       6.255  -0.444   2.493  1.00  0.00     0.134 A 
ATOM      3  C   UNL     1       8.542  -0.536   4.032  1.00  0.00     0.048 A 
ATOM      4  C   UNL     1       8.637  -0.810   2.671  1.00  0.00     0.031 A 
ATOM      5  C   UNL     1       7.311  -0.226   4.573  1.00  0.00     0.109 A 
ATOM      6  C   UNL     1       7.475  -0.762   1.895  1.00  0.00     0.049 A 
ATOM      7  N   UNL     1       6.182  -0.181   3.810  1.00  0.00    -0.345 N 
ATOM      8  H   UNL     1       5.252   0.055   4.225  1.00  0.00     0.168 HD
BRANCH   3   9
ATOM      9  N   UNL     1       9.729  -0.586   4.817  1.00  0.00    -0.398 N 
ATOM     10  H   UNL     1      10.346  -1.435   4.810  1.00  0.00     0.156 HD
ATOM     11  H   UNL     1      10.009   0.241   5.424  1.00  0.00     0.156 HD
ENDBRANCH   3   9
ENDBRANCH   1   2
BRANCH   1  12
ATOM     12  C   UNL     1       5.257  -0.031   0.347  1.00  0.00     0.278 C 
ATOM     13  O   UNL     1       5.436  -0.871  -0.596  1.00  0.00    -0.267 OA
BRANCH  12  14
ATOM     14  C   UNL     1       5.063   1.392   0.052  1.00  0.00     0.042 A 
ATOM     15  C   UNL     1       4.687   1.848  -1.196  1.00  0.00     0.015 A 
ATOM     16  C   UNL     1       5.271   2.289   1.078  1.00  0.00     0.015 A 
ATOM     17  C   UNL     1       4.532   3.214  -1.366  1.00  0.00     0.021 A 
ATOM     18  C   UNL     1       5.120   3.658   0.921  1.00  0.00     0.021 A 
ATOM     19  C   UNL     1       4.739   4.118  -0.343  1.00  0.00     0.041 A 
ATOM     20  Cl  UNL     1       4.537   5.845  -0.582  1.00  0.00    -0.084 Cl
ENDBRANCH  12  14
ENDBRANCH   1  12
TORSDOF 4
ENDMDL
MODEL 7
REMARK VINA RESULT:      -4.2      2.742      3.813
REMARK SMILES Nc1ccc(=NC(=O)c2ccc(Cl)cc2)[nH]c1
REMARK SMILES IDX 6 1 5 2 2 3 3 4 17 5 4 6 16 7 1 9 7 12 8 13 9 14 10 15 15 16
REMARK SMILES IDX 11 17 14 18 12 19 13 20
REMARK H PARENT 16 8 1 10 1 11
ROOT
ATOM      1  N   UNL     1       4.401   2.711  -1.329  1.00  0.00    -0.191 NA
ENDROOT
BRANCH   1   2
ATOM      2  C   UNL     1       4.989   1.765  -0.679  1.00  0.00     0.134 A 
ATOM      3  C   UNL     1       6.086  -0.282   0.809  1.00  0.00     0.048 A 
ATOM      4  C   UNL     1       4.773   0.100   1.060  1.00  0.00     0.031 A 
ATOM      5  C   UNL     1       6.802   0.370  -0.174  1.00  0.00     0.109 A 
ATOM      6  C   UNL     1       4.220   1.137   0.304  1.00  0.00     0.049 A 
ATOM      7  N   UNL     1       6.257   1.381  -0.909  1.00  0.00    -0.345 N 
ATOM      8  H   UNL     1       6.803   1.872  -1.652  1.00  0.00     0.168 HD
BRANCH   3   9
ATOM      9  N   UNL     1       6.644  -1.341   1.582  1.00  0.00    -0.398 N 
ATOM     10  H   UNL     1       7.683  -1.461   1.663  1.00  0.00     0.156 HD
ATOM     11  H   UNL     1       6.011  -2.027   2.092  1.00  0.00     0.156 HD
ENDBRANCH   3   9
ENDBRANCH   1   2
BRANCH   1  12
ATOM     12  C   UNL     1       4.580   4.094  -1.103  1.00  0.00     0.278 C 
ATOM     13  O   UNL     1       4.227   4.971  -1.959  1.00  0.00    -0.267 OA
BRANCH  12  14
ATOM     14  C   UNL     1       5.194   4.495   0.167  1.00  0.00     0.042 A 
ATOM     15  C   UNL     1       6.547   4.735   0.295  1.00  0.00     0.015 A 
ATOM     16  C   UNL     1       4.365   4.631   1.260  1.00  0.00     0.015 A 
ATOM     17  C   UNL     1       7.023   5.110   1.542  1.00  0.00     0.021 A 
ATOM     18  C   UNL     1       4.828   5.004   2.512  1.00  0.00     0.021 A 
ATOM     19  C   UNL     1       6.198   5.247   2.641  1.00  0.00     0.041 A 
ATOM     20  Cl  UNL     1       6.823   5.722   4.211  1.00  0.00    -0.084 Cl
ENDBRANCH  12  14
ENDBRANCH   1  12
TORSDOF 4
ENDMDL
MODEL 8
REMARK VINA RESULT:      -4.1      1.760      1.841
REMARK SMILES Nc1ccc(=NC(=O)c2ccc(Cl)cc2)[nH]c1
REMARK SMILES IDX 6 1 5 2 2 3 3 4 17 5 4 6 16 7 1 9 7 12 8 13 9 14 10 15 15 16
REMARK SMILES IDX 11 17 14 18 12 19 13 20
REMARK H PARENT 16 8 1 10 1 11
ROOT
ATOM      1  N   UNL     1       5.701  -1.354   1.422  1.00  0.00    -0.191 NA
ENDROOT
BRANCH   1   2
ATOM      2  C   UNL     1       6.657  -1.151   2.263  1.00  0.00     0.134 A 
ATOM      3  C   UNL     1       8.576  -0.628   4.174  1.00  0.00     0.048 A 
ATOM      4  C   UNL     1       7.274  -0.192   4.395  1.00  0.00     0.031 A 
ATOM      5  C   UNL     1       8.872  -1.308   3.010  1.00  0.00     0.109 A 
ATOM      6  C   UNL     1       6.304  -0.460   3.424  1.00  0.00     0.049 A 
ATOM      7  N   UNL     1       7.921  -1.565   2.067  1.00  0.00    -0.345 N 
ATOM      8  H   UNL     1       8.150  -2.080   1.187  1.00  0.00     0.168 HD
BRANCH   3   9
ATOM      9  N   UNL     1       9.560  -0.354   5.166  1.00  0.00    -0.398 N 
ATOM     10  H   UNL     1      10.106  -1.130   5.614  1.00  0.00     0.156 HD
ATOM     11  H   UNL     1       9.757   0.647   5.468  1.00  0.00     0.156 HD
ENDBRANCH   3   9
ENDBRANCH   1   2
BRANCH   1  12
ATOM     12  C   UNL     1       5.026  -0.352   0.690  1.00  0.00     0.278 C 
ATOM     13  O   UNL     1       3.788  -0.442   0.400  1.00  0.00    -0.267 OA
BRANCH  12  14
ATOM     14  C   UNL     1       5.807   0.815   0.268  1.00  0.00     0.042 A 
ATOM     15  C   UNL     1       6.867   0.721  -0.611  1.00  0.00     0.015 A 
ATOM     16  C   UNL     1       5.450   2.042   0.785  1.00  0.00     0.015 A 
ATOM     17  C   UNL     1       7.538   1.888  -0.944  1.00  0.00     0.021 A 
ATOM     18  C   UNL     1       6.112   3.216   0.462  1.00  0.00     0.021 A 
ATOM     19  C   UNL     1       7.185   3.120  -0.429  1.00  0.00     0.041 A 
ATOM     20  Cl  UNL     1       8.050   4.584  -0.864  1.00  0.00    -0.084 Cl
ENDBRANCH  12  14
ENDBRANCH   1  12
TORSDOF 4
ENDMDL
MODEL 9
REMARK VINA RESULT:      -4.0      3.110      5.085
REMARK SMILES Nc1ccc(=NC(=O)c2ccc(Cl)cc2)[nH]c1
REMARK SMILES IDX 6 1 5 2 2 3 3 4 17 5 4 6 16 7 1 9 7 12 8 13 9 14 10 15 15 16
REMARK SMILES IDX 11 17 14 18 12 19 13 20
REMARK H PARENT 16 8 1 10 1 11
ROOT
ATOM      1  N   UNL     1       4.403   1.346  -0.455  1.00  0.00    -0.191 NA
ENDROOT
BRANCH   1   2
ATOM      2  C   UNL     1       5.179   2.361  -0.630  1.00  0.00     0.134 A 
ATOM      3  C   UNL     1       6.707   4.639  -0.923  1.00  0.00     0.048 A 
ATOM      4  C   UNL     1       5.454   4.743  -0.328  1.00  0.00     0.031 A 
ATOM      5  C   UNL     1       7.151   3.403  -1.348  1.00  0.00     0.109 A 
ATOM      6  C   UNL     1       4.683   3.586  -0.182  1.00  0.00     0.049 A 
ATOM      7  N   UNL     1       6.394   2.278  -1.201  1.00  0.00    -0.345 N 
ATOM      8  H   UNL     1       6.734   1.345  -1.525  1.00  0.00     0.168 HD
BRANCH   3   9
ATOM      9  N   UNL     1       7.488   5.820  -1.070  1.00  0.00    -0.398 N 
ATOM     10  H   UNL     1       8.528   5.801  -0.929  1.00  0.00     0.156 HD
ATOM     11  H   UNL     1       7.027   6.744  -1.326  1.00  0.00     0.156 HD
ENDBRANCH   3   9
ENDBRANCH   1   2
BRANCH   1  12
ATOM     12  C   UNL     1       4.296   0.591   0.735  1.00  0.00     0.278 C 
ATOM     13  O   UNL     1       3.179   0.138   1.151  1.00  0.00    -0.267 OA
BRANCH  12  14
ATOM     14  C   UNL     1       5.529   0.341   1.486  1.00  0.00     0.042 A 
ATOM     15  C   UNL     1       6.158  -0.888   1.494  1.00  0.00     0.015 A 
ATOM     16  C   UNL     1       6.061   1.389   2.206  1.00  0.00     0.015 A 
ATOM     17  C   UNL     1       7.320  -1.017   2.239  1.00  0.00     0.021 A 
ATOM     18  C   UNL     1       7.222   1.274   2.955  1.00  0.00     0.021 A 
ATOM     19  C   UNL     1       7.858   0.030   2.962  1.00  0.00     0.041 A 
ATOM     20  Cl  UNL     1       9.330  -0.157   3.899  1.00  0.00    -0.084 Cl
ENDBRANCH  12  14
ENDBRANCH   1  12
TORSDOF 4
ENDMDL
