MODEL 1
REMARK VINA RESULT:      -4.2      0.000      0.000
REMARK SMILES CCOc1ccc(C=CC#N)cc1OCC
REMARK SMILES IDX 4 1 5 2 6 3 7 4 12 5 13 6 3 7 2 8 1 9 14 10 15 11 16 12 8 13
REMARK SMILES IDX 9 14 10 15 11 16
REMARK H PARENT
ROOT
ATOM      1  C   UNL     1       6.372   1.474  -0.099  1.00  0.00     0.161 A 
ATOM      2  C   UNL     1       6.901   2.722   0.150  1.00  0.00     0.051 A 
ATOM      3  C   UNL     1       6.269   3.870  -0.281  1.00  0.00     0.012 A 
ATOM      4  C   UNL     1       5.064   3.809  -0.990  1.00  0.00    -0.021 A 
ATOM      5  C   UNL     1       4.548   2.563  -1.233  1.00  0.00     0.058 A 
ATOM      6  C   UNL     1       5.184   1.395  -0.798  1.00  0.00     0.161 A 
ENDROOT
BRANCH   1   7
ATOM      7  O   UNL     1       7.009   0.330   0.335  1.00  0.00    -0.490 OA
BRANCH   7   8
ATOM      8  C   UNL     1       7.399   0.281   1.699  1.00  0.00     0.226 C 
ATOM      9  C   UNL     1       6.302  -0.298   2.566  1.00  0.00     0.049 C 
ENDBRANCH   7   8
ENDBRANCH   1   7
BRANCH   6  10
ATOM     10  O   UNL     1       4.669   0.143  -1.039  1.00  0.00    -0.490 OA
BRANCH  10  11
ATOM     11  C   UNL     1       3.719  -0.429  -0.180  1.00  0.00     0.226 C 
ATOM     12  C   UNL     1       3.153   0.589   0.782  1.00  0.00     0.049 C 
ENDBRANCH  10  11
ENDBRANCH   6  10
BRANCH   4  13
ATOM     13  C   UNL     1       4.406   5.029  -1.441  1.00  0.00     0.019 C 
BRANCH  13  14
ATOM     14  C   UNL     1       3.730   5.834  -0.641  1.00  0.00     0.091 C 
BRANCH  14  15
ATOM     15  C   UNL     1       3.914   5.803   0.800  1.00  0.00     0.091 C 
ATOM     16  N   UNL     1       4.049   5.762   1.944  1.00  0.00    -0.193 NA
ENDBRANCH  14  15
ENDBRANCH  13  14
ENDBRANCH   4  13
TORSDOF 7
ENDMDL
MODEL 2
REMARK VINA RESULT:      -4.0      2.469      5.008
REMARK SMILES CCOc1ccc(C=CC#N)cc1OCC
REMARK SMILES IDX 4 1 5 2 6 3 7 4 12 5 13 6 3 7 2 8 1 9 14 10 15 11 16 12 8 13
REMARK SMILES IDX 9 14 10 15 11 16
REMARK H PARENT
ROOT
ATOM      1  C   UNL     1       6.952   2.064   0.020  1.00  0.00     0.161 A 
ATOM      2  C   UNL     1       7.837   2.725   0.844  1.00  0.00     0.051 A 
ATOM      3  C   UNL     1       8.603   2.046   1.769  1.00  0.00     0.012 A 
ATOM      4  C   UNL     1       8.508   0.656   1.905  1.00  0.00    -0.021 A 
ATOM      5  C   UNL     1       7.624   0.009   1.081  1.00  0.00     0.058 A 
ATOM      6  C   UNL     1       6.845   0.693   0.141  1.00  0.00     0.161 A 
ENDROOT
BRANCH   1   7
ATOM      7  O   UNL     1       6.190   2.749  -0.903  1.00  0.00    -0.490 OA
BRANCH   7   8
ATOM      8  C   UNL     1       5.644   3.996  -0.499  1.00  0.00     0.226 C 
ATOM      9  C   UNL     1       4.495   3.807   0.468  1.00  0.00     0.049 C 
ENDBRANCH   7   8
ENDBRANCH   1   7
BRANCH   6  10
ATOM     10  O   UNL     1       5.957   0.049  -0.688  1.00  0.00    -0.490 OA
BRANCH  10  11
ATOM     11  C   UNL     1       4.914  -0.732  -0.170  1.00  0.00     0.226 C 
ATOM     12  C   UNL     1       3.678   0.095   0.095  1.00  0.00     0.049 C 
ENDBRANCH  10  11
ENDBRANCH   6  10
BRANCH   4  13
ATOM     13  C   UNL     1       9.321  -0.051   2.886  1.00  0.00     0.019 C 
BRANCH  13  14
ATOM     14  C   UNL     1       9.117   0.015   4.190  1.00  0.00     0.091 C 
BRANCH  14  15
ATOM     15  C   UNL     1       7.780  -0.052   4.753  1.00  0.00     0.091 C 
ATOM     16  N   UNL     1       6.726  -0.102   5.218  1.00  0.00    -0.193 NA
ENDBRANCH  14  15
ENDBRANCH  13  14
ENDBRANCH   4  13
TORSDOF 7
ENDMDL
MODEL 3
REMARK VINA RESULT:      -3.8      2.416      5.448
REMARK SMILES CCOc1ccc(C=CC#N)cc1OCC
REMARK SMILES IDX 4 1 5 2 6 3 7 4 12 5 13 6 3 7 2 8 1 9 14 10 15 11 16 12 8 13
REMARK SMILES IDX 9 14 10 15 11 16
REMARK H PARENT
ROOT
ATOM      1  C   UNL     1       5.256   2.253  -0.972  1.00  0.00     0.161 A 
ATOM      2  C   UNL     1       4.252   1.513  -0.387  1.00  0.00     0.051 A 
ATOM      3  C   UNL     1       4.529   0.533   0.545  1.00  0.00     0.012 A 
ATOM      4  C   UNL     1       5.845   0.255   0.930  1.00  0.00    -0.021 A 
ATOM      5  C   UNL     1       6.836   0.997   0.342  1.00  0.00     0.058 A 
ATOM      6  C   UNL     1       6.560   1.991  -0.603  1.00  0.00     0.161 A 
ENDROOT
BRANCH   1   7
ATOM      7  O   UNL     1       4.972   3.231  -1.901  1.00  0.00    -0.490 OA
BRANCH   7   8
ATOM      8  C   UNL     1       4.223   4.352  -1.458  1.00  0.00     0.226 C 
ATOM      9  C   UNL     1       5.114   5.384  -0.801  1.00  0.00     0.049 C 
ENDBRANCH   7   8
ENDBRANCH   1   7
BRANCH   6  10
ATOM     10  O   UNL     1       7.551   2.739  -1.195  1.00  0.00    -0.490 OA
BRANCH  10  11
ATOM     11  C   UNL     1       8.353   3.610  -0.442  1.00  0.00     0.226 C 
ATOM     12  C   UNL     1       8.803   4.798  -1.258  1.00  0.00     0.049 C 
ENDBRANCH  10  11
ENDBRANCH   6  10
BRANCH   4  13
ATOM     13  C   UNL     1       6.126  -0.783   1.915  1.00  0.00     0.019 C 
BRANCH  13  14
ATOM     14  C   UNL     1       6.014  -0.604   3.219  1.00  0.00     0.091 C 
BRANCH  14  15
ATOM     15  C   UNL     1       7.082   0.002   3.997  1.00  0.00     0.091 C 
ATOM     16  N   UNL     1       7.916   0.495   4.622  1.00  0.00    -0.193 NA
ENDBRANCH  14  15
ENDBRANCH  13  14
ENDBRANCH   4  13
TORSDOF 7
ENDMDL
MODEL 4
REMARK VINA RESULT:      -3.8      2.857      4.416
REMARK SMILES CCOc1ccc(C=CC#N)cc1OCC
REMARK SMILES IDX 4 1 5 2 6 3 7 4 12 5 13 6 3 7 2 8 1 9 14 10 15 11 16 12 8 13
REMARK SMILES IDX 9 14 10 15 11 16
REMARK H PARENT
ROOT
ATOM      1  C   UNL     1       5.598   1.786   0.656  1.00  0.00     0.161 A 
ATOM      2  C   UNL     1       5.105   2.872  -0.034  1.00  0.00     0.051 A 
ATOM      3  C   UNL     1       5.941   3.727  -0.723  1.00  0.00     0.012 A 
ATOM      4  C   UNL     1       7.326   3.520  -0.745  1.00  0.00    -0.021 A 
ATOM      5  C   UNL     1       7.804   2.438  -0.055  1.00  0.00     0.058 A 
ATOM      6  C   UNL     1       6.961   1.568   0.645  1.00  0.00     0.161 A 
ENDROOT
BRANCH   1   7
ATOM      7  O   UNL     1       4.756   0.936   1.342  1.00  0.00    -0.490 OA
BRANCH   7   8
ATOM      8  C   UNL     1       3.569   0.524   0.683  1.00  0.00     0.226 C 
ATOM      9  C   UNL     1       3.862  -0.496  -0.396  1.00  0.00     0.049 C 
ENDBRANCH   7   8
ENDBRANCH   1   7
BRANCH   6  10
ATOM     10  O   UNL     1       7.437   0.480   1.339  1.00  0.00    -0.490 OA
BRANCH  10  11
ATOM     11  C   UNL     1       8.291   0.637   2.440  1.00  0.00     0.226 C 
ATOM     12  C   UNL     1       7.522   0.960   3.699  1.00  0.00     0.049 C 
ENDBRANCH  10  11
ENDBRANCH   6  10
BRANCH   4  13
ATOM     13  C   UNL     1       8.200   4.430  -1.475  1.00  0.00     0.019 C 
BRANCH  13  14
ATOM     14  C   UNL     1       9.293   4.044  -2.108  1.00  0.00     0.091 C 
BRANCH  14  15
ATOM     15  C   UNL     1       9.228   3.216  -3.301  1.00  0.00     0.091 C 
ATOM     16  N   UNL     1       9.165   2.572  -4.255  1.00  0.00    -0.193 NA
ENDBRANCH  14  15
ENDBRANCH  13  14
ENDBRANCH   4  13
TORSDOF 7
ENDMDL
MODEL 5
REMARK VINA RESULT:      -3.7      1.308      2.828
REMARK SMILES CCOc1ccc(C=CC#N)cc1OCC
REMARK SMILES IDX 4 1 5 2 6 3 7 4 12 5 13 6 3 7 2 8 1 9 14 10 15 11 16 12 8 13
REMARK SMILES IDX 9 14 10 15 11 16
REMARK H PARENT
ROOT
ATOM      1  C   UNL     1       5.822   0.060   0.297  1.00  0.00     0.161 A 
ATOM      2  C   UNL     1       4.502   0.394   0.086  1.00  0.00     0.051 A 
ATOM      3  C   UNL     1       4.148   1.567  -0.548  1.00  0.00     0.012 A 
ATOM      4  C   UNL     1       5.122   2.464  -1.002  1.00  0.00    -0.021 A 
ATOM      5  C   UNL     1       6.431   2.123  -0.788  1.00  0.00     0.058 A 
ATOM      6  C   UNL     1       6.795   0.935  -0.145  1.00  0.00     0.161 A 
ENDROOT
BRANCH   1   7
ATOM      7  O   UNL     1       6.168  -1.114   0.931  1.00  0.00    -0.490 OA
BRANCH   7   8
ATOM      8  C   UNL     1       6.832  -1.008   2.181  1.00  0.00     0.226 C 
ATOM      9  C   UNL     1       5.875  -0.601   3.280  1.00  0.00     0.049 C 
ENDBRANCH   7   8
ENDBRANCH   1   7
BRANCH   6  10
ATOM     10  O   UNL     1       8.108   0.587   0.072  1.00  0.00    -0.490 OA
BRANCH  10  11
ATOM     11  C   UNL     1       9.076   1.557   0.376  1.00  0.00     0.226 C 
ATOM     12  C   UNL     1       9.046   1.934   1.838  1.00  0.00     0.049 C 
ENDBRANCH  10  11
ENDBRANCH   6  10
BRANCH   4  13
ATOM     13  C   UNL     1       4.736   3.702  -1.671  1.00  0.00     0.019 C 
BRANCH  13  14
ATOM     14  C   UNL     1       4.178   4.725  -1.049  1.00  0.00     0.091 C 
BRANCH  14  15
ATOM     15  C   UNL     1       4.399   4.967   0.366  1.00  0.00     0.091 C 
ATOM     16  N   UNL     1       4.563   5.174   1.489  1.00  0.00    -0.193 NA
ENDBRANCH  14  15
ENDBRANCH  13  14
ENDBRANCH   4  13
TORSDOF 7
ENDMDL
MODEL 6
REMARK VINA RESULT:      -3.7      1.457      2.897
REMARK SMILES CCOc1ccc(C=CC#N)cc1OCC
REMARK SMILES IDX 4 1 5 2 6 3 7 4 12 5 13 6 3 7 2 8 1 9 14 10 15 11 16 12 8 13
REMARK SMILES IDX 9 14 10 15 11 16
REMARK H PARENT
ROOT
ATOM      1  C   UNL     1       6.186   0.615   0.708  1.00  0.00     0.161 A 
ATOM      2  C   UNL     1       4.856   0.647   0.349  1.00  0.00     0.051 A 
ATOM      3  C   UNL     1       4.345   1.665  -0.430  1.00  0.00     0.012 A 
ATOM      4  C   UNL     1       5.163   2.705  -0.886  1.00  0.00    -0.021 A 
ATOM      5  C   UNL     1       6.484   2.663  -0.523  1.00  0.00     0.058 A 
ATOM      6  C   UNL     1       7.007   1.633   0.267  1.00  0.00     0.161 A 
ENDROOT
BRANCH   1   7
ATOM      7  O   UNL     1       6.689  -0.406   1.486  1.00  0.00    -0.490 OA
BRANCH   7   8
ATOM      8  C   UNL     1       6.336  -0.411   2.861  1.00  0.00     0.226 C 
ATOM      9  C   UNL     1       7.564  -0.427   3.745  1.00  0.00     0.049 C 
ENDBRANCH   7   8
ENDBRANCH   1   7
BRANCH   6  10
ATOM     10  O   UNL     1       8.331   1.586   0.633  1.00  0.00    -0.490 OA
BRANCH  10  11
ATOM     11  C   UNL     1       9.254   0.805  -0.079  1.00  0.00     0.226 C 
ATOM     12  C   UNL     1       9.226   1.117  -1.556  1.00  0.00     0.049 C 
ENDBRANCH  10  11
ENDBRANCH   6  10
BRANCH   4  13
ATOM     13  C   UNL     1       4.613   3.776  -1.708  1.00  0.00     0.019 C 
BRANCH  13  14
ATOM     14  C   UNL     1       4.480   5.023  -1.292  1.00  0.00     0.091 C 
BRANCH  14  15
ATOM     15  C   UNL     1       4.155   5.332   0.090  1.00  0.00     0.091 C 
ATOM     16  N   UNL     1       3.897   5.596   1.182  1.00  0.00    -0.193 NA
ENDBRANCH  14  15
ENDBRANCH  13  14
ENDBRANCH   4  13
TORSDOF 7
ENDMDL
MODEL 7
REMARK VINA RESULT:      -3.7      1.804      3.412
REMARK SMILES CCOc1ccc(C=CC#N)cc1OCC
REMARK SMILES IDX 4 1 5 2 6 3 7 4 12 5 13 6 3 7 2 8 1 9 14 10 15 11 16 12 8 13
REMARK SMILES IDX 9 14 10 15 11 16
REMARK H PARENT
ROOT
ATOM      1  C   UNL     1       6.024   1.526  -0.315  1.00  0.00     0.161 A 
ATOM      2  C   UNL     1       5.734   2.836  -0.627  1.00  0.00     0.051 A 
ATOM      3  C   UNL     1       6.402   3.884  -0.026  1.00  0.00     0.012 A 
ATOM      4  C   UNL     1       7.402   3.651   0.926  1.00  0.00    -0.021 A 
ATOM      5  C   UNL     1       7.681   2.344   1.228  1.00  0.00     0.058 A 
ATOM      6  C   UNL     1       7.007   1.279   0.622  1.00  0.00     0.161 A 
ENDROOT
BRANCH   1   7
ATOM      7  O   UNL     1       5.353   0.484  -0.920  1.00  0.00    -0.490 OA
BRANCH   7   8
ATOM      8  C   UNL     1       3.935   0.541  -0.928  1.00  0.00     0.226 C 
ATOM      9  C   UNL     1       3.364   0.269   0.447  1.00  0.00     0.049 C 
ENDBRANCH   7   8
ENDBRANCH   1   7
BRANCH   6  10
ATOM     10  O   UNL     1       7.284  -0.034   0.922  1.00  0.00    -0.490 OA
BRANCH  10  11
ATOM     11  C   UNL     1       7.400  -0.468   2.251  1.00  0.00     0.226 C 
ATOM     12  C   UNL     1       6.049  -0.594   2.915  1.00  0.00     0.049 C 
ENDBRANCH  10  11
ENDBRANCH   6  10
BRANCH   4  13
ATOM     13  C   UNL     1       8.101   4.765   1.555  1.00  0.00     0.019 C 
BRANCH  13  14
ATOM     14  C   UNL     1       7.856   5.181   2.785  1.00  0.00     0.091 C 
BRANCH  14  15
ATOM     15  C   UNL     1       6.536   5.061   3.379  1.00  0.00     0.091 C 
ATOM     16  N   UNL     1       5.495   4.955   3.865  1.00  0.00    -0.193 NA
ENDBRANCH  14  15
ENDBRANCH  13  14
ENDBRANCH   4  13
TORSDOF 7
ENDMDL
MODEL 8
REMARK VINA RESULT:      -3.6      1.851      2.361
REMARK SMILES CCOc1ccc(C=CC#N)cc1OCC
REMARK SMILES IDX 4 1 5 2 6 3 7 4 12 5 13 6 3 7 2 8 1 9 14 10 15 11 16 12 8 13
REMARK SMILES IDX 9 14 10 15 11 16
REMARK H PARENT
ROOT
ATOM      1  C   UNL     1       6.929   0.922   1.910  1.00  0.00     0.161 A 
ATOM      2  C   UNL     1       7.170   1.929   2.819  1.00  0.00     0.051 A 
ATOM      3  C   UNL     1       6.655   3.197   2.643  1.00  0.00     0.012 A 
ATOM      4  C   UNL     1       5.866   3.507   1.530  1.00  0.00    -0.021 A 
ATOM      5  C   UNL     1       5.633   2.499   0.632  1.00  0.00     0.058 A 
ATOM      6  C   UNL     1       6.153   1.211   0.805  1.00  0.00     0.161 A 
ENDROOT
BRANCH   1   7
ATOM      7  O   UNL     1       7.447  -0.342   2.093  1.00  0.00    -0.490 OA
BRANCH   7   8
ATOM      8  C   UNL     1       8.825  -0.529   1.808  1.00  0.00     0.226 C 
ATOM      9  C   UNL     1       9.389  -1.714   2.562  1.00  0.00     0.049 C 
ENDBRANCH   7   8
ENDBRANCH   1   7
BRANCH   6  10
ATOM     10  O   UNL     1       5.922   0.196  -0.093  1.00  0.00    -0.490 OA
BRANCH  10  11
ATOM     11  C   UNL     1       4.786   0.200  -0.917  1.00  0.00     0.226 C 
ATOM     12  C   UNL     1       3.566  -0.304  -0.185  1.00  0.00     0.049 C 
ENDBRANCH  10  11
ENDBRANCH   6  10
BRANCH   4  13
ATOM     13  C   UNL     1       5.327   4.850   1.353  1.00  0.00     0.019 C 
BRANCH  13  14
ATOM     14  C   UNL     1       5.528   5.583   0.272  1.00  0.00     0.091 C 
BRANCH  14  15
ATOM     15  C   UNL     1       4.501   5.736  -0.743  1.00  0.00     0.091 C 
ATOM     16  N   UNL     1       3.675   5.844  -1.541  1.00  0.00    -0.193 NA
ENDBRANCH  14  15
ENDBRANCH  13  14
ENDBRANCH   4  13
TORSDOF 7
ENDMDL
MODEL 9
REMARK VINA RESULT:      -3.6      1.816      3.461
REMARK SMILES CCOc1ccc(C=CC#N)cc1OCC
REMARK SMILES IDX 4 1 5 2 6 3 7 4 12 5 13 6 3 7 2 8 1 9 14 10 15 11 16 12 8 13
REMARK SMILES IDX 9 14 10 15 11 16
REMARK H PARENT
ROOT
ATOM      1  C   UNL     1       6.119  -0.016   1.655  1.00  0.00     0.161 A 
ATOM      2  C   UNL     1       4.787   0.324   1.560  1.00  0.00     0.051 A 
ATOM      3  C   UNL     1       4.327   1.160   0.562  1.00  0.00     0.012 A 
ATOM      4  C   UNL     1       5.201   1.694  -0.392  1.00  0.00    -0.021 A 
ATOM      5  C   UNL     1       6.522   1.350  -0.288  1.00  0.00     0.058 A 
ATOM      6  C   UNL     1       6.994   0.503   0.722  1.00  0.00     0.161 A 
ENDROOT
BRANCH   1   7
ATOM      7  O   UNL     1       6.572  -0.852   2.654  1.00  0.00    -0.490 OA
BRANCH   7   8
ATOM      8  C   UNL     1       6.737  -0.291   3.946  1.00  0.00     0.226 C 
ATOM      9  C   UNL     1       8.144  -0.504   4.464  1.00  0.00     0.049 C 
ENDBRANCH   7   8
ENDBRANCH   1   7
BRANCH   6  10
ATOM     10  O   UNL     1       8.320   0.153   0.830  1.00  0.00    -0.490 OA
BRANCH  10  11
ATOM     11  C   UNL     1       9.270   1.053   1.336  1.00  0.00     0.226 C 
ATOM     12  C   UNL     1       9.737   2.024   0.278  1.00  0.00     0.049 C 
ENDBRANCH  10  11
ENDBRANCH   6  10
BRANCH   4  13
ATOM     13  C   UNL     1       4.704   2.577  -1.441  1.00  0.00     0.019 C 
BRANCH  13  14
ATOM     14  C   UNL     1       4.456   3.862  -1.259  1.00  0.00     0.091 C 
BRANCH  14  15
ATOM     15  C   UNL     1       5.477   4.770  -0.765  1.00  0.00     0.091 C 
ATOM     16  N   UNL     1       6.273   5.503  -0.368  1.00  0.00    -0.193 NA
ENDBRANCH  14  15
ENDBRANCH  13  14
ENDBRANCH   4  13
TORSDOF 7
ENDMDL
