MODEL 1
REMARK VINA RESULT:      -3.5      0.000      0.000
REMARK SMILES CCOC(=O)c1c(C(=O)OC)nnn1CC(CC1CCCNC1=O)OS(=O)(=O)c1ccc(C)cc1
REMARK SMILES IDX 15 1 14 2 6 3 7 4 12 5 13 6 4 7 5 8 3 9 2 10 1 11 8 12 9 13
REMARK SMILES IDX 10 14 11 15 16 16 17 17 18 18 19 19 23 20 20 21 22 22 21 23
REMARK SMILES IDX 24 24 25 26 26 27 27 28 28 29 29 30 30 31 35 32 31 33 34 34
REMARK SMILES IDX 32 35 33 36
REMARK H PARENT 22 25
ROOT
ATOM      1  C   UNL     1       6.008   1.322  -0.719  1.00  0.00     0.180 C 
ENDROOT
BRANCH   1   2
ATOM      2  N   UNL     1       6.744   1.232   0.488  1.00  0.00    -0.234 N 
ATOM      3  C   UNL     1       6.534   0.504   1.621  1.00  0.00     0.181 A 
ATOM      4  C   UNL     1       7.509   0.788   2.538  1.00  0.00     0.205 A 
ATOM      5  N   UNL     1       8.308   1.700   1.938  1.00  0.00    -0.122 NA
ATOM      6  N   UNL     1       7.834   1.932   0.756  1.00  0.00    -0.066 NA
BRANCH   3   7
ATOM      7  C   UNL     1       5.435  -0.425   1.806  1.00  0.00     0.359 C 
ATOM      8  O   UNL     1       4.912  -0.701   2.917  1.00  0.00    -0.244 OA
BRANCH   7   9
ATOM      9  O   UNL     1       4.871  -1.094   0.715  1.00  0.00    -0.461 OA
BRANCH   9  10
ATOM     10  C   UNL     1       3.692  -0.607   0.084  1.00  0.00     0.230 C 
ATOM     11  C   UNL     1       3.114   0.500   0.972  1.00  0.00     0.049 C 
ENDBRANCH   9  10
ENDBRANCH   7   9
ENDBRANCH   3   7
BRANCH   4  12
ATOM     12  C   UNL     1       7.754   0.302   3.879  1.00  0.00     0.361 C 
ATOM     13  O   UNL     1       7.469   1.060   4.878  1.00  0.00    -0.244 OA
BRANCH  12  14
ATOM     14  O   UNL     1       8.276  -0.924   4.219  1.00  0.00    -0.464 OA
ATOM     15  C   UNL     1       9.615  -1.304   3.981  1.00  0.00     0.282 C 
ENDBRANCH  12  14
ENDBRANCH   4  12
ENDBRANCH   1   2
BRANCH   1  16
ATOM     16  C   UNL     1       5.606   2.637  -1.261  1.00  0.00     0.162 C 
BRANCH  16  17
ATOM     17  C   UNL     1       6.592   3.695  -1.492  1.00  0.00     0.049 C 
BRANCH  17  18
ATOM     18  C   UNL     1       8.037   3.450  -1.314  1.00  0.00     0.081 C 
ATOM     19  C   UNL     1       8.504   2.356  -2.228  1.00  0.00     0.015 C 
ATOM     20  C   UNL     1       8.705   4.709  -1.883  1.00  0.00     0.223 C 
ATOM     21  C   UNL     1       8.482   2.731  -3.689  1.00  0.00     0.022 C 
ATOM     22  N   UNL     1       9.717   4.608  -2.868  1.00  0.00    -0.356 N 
ATOM     23  C   UNL     1       9.584   3.712  -4.027  1.00  0.00     0.116 C 
ATOM     24  O   UNL     1       8.340   5.846  -1.461  1.00  0.00    -0.275 OA
ATOM     25  H   UNL     1      10.573   5.206  -2.735  1.00  0.00     0.163 HD
ENDBRANCH  17  18
ENDBRANCH  16  17
BRANCH  16  26
ATOM     26  O   UNL     1       4.694   3.158  -0.293  1.00  0.00    -0.261 OA
BRANCH  26  27
ATOM     27  S   UNL     1       4.776   4.785  -0.093  1.00  0.00     0.297 S 
ATOM     28  O   UNL     1       5.619   5.460  -1.171  1.00  0.00    -0.194 OA
ATOM     29  O   UNL     1       3.461   5.465   0.060  1.00  0.00    -0.194 OA
BRANCH  27  30
ATOM     30  C   UNL     1       5.669   5.087   1.394  1.00  0.00     0.094 A 
ATOM     31  C   UNL     1       5.023   5.575   2.536  1.00  0.00     0.023 A 
ATOM     32  C   UNL     1       7.014   4.865   1.513  1.00  0.00     0.023 A 
ATOM     33  C   UNL     1       5.704   5.819   3.710  1.00  0.00     0.005 A 
ATOM     34  C   UNL     1       7.705   5.103   2.678  1.00  0.00     0.005 A 
ATOM     35  C   UNL     1       7.058   5.585   3.795  1.00  0.00    -0.051 A 
ATOM     36  C   UNL     1       7.793   5.847   5.063  1.00  0.00     0.044 C 
ENDBRANCH  27  30
ENDBRANCH  26  27
ENDBRANCH  16  26
ENDBRANCH   1  16
TORSDOF 12
ENDMDL
