MODEL 1
REMARK VINA RESULT:       9.7      0.000      0.000
REMARK SMILES NC1CN(C(=O)c2cc(C(F)(F)F)ncc2NC(=O)c2nc(C3CC3)ccc2Nc2cncnc2)CC2COCC12
REMARK SMILES IDX 7 1 8 2 9 3 14 4 15 5 16 6 5 7 6 8 4 9 2 10 3 11 41 12 40 13
REMARK SMILES IDX 37 14 36 15 39 16 38 17 1 18 17 21 18 22 19 24 20 25 21 26
REMARK SMILES IDX 28 27 22 28 27 29 26 30 29 31 30 33 31 34 35 35 32 36 34 37
REMARK SMILES IDX 33 38 23 39 24 40 25 41 10 42 11 43 12 44 13 45
REMARK H PARENT 1 19 1 20 17 23 29 32
ROOT
ATOM      1  C   UNL     1       4.734   0.695   0.059  1.00  0.00     0.067 A 
ATOM      2  C   UNL     1       3.545   0.256  -0.462  1.00  0.00     0.049 A 
ATOM      3  C   UNL     1       2.625   1.101  -1.084  1.00  0.00     0.145 A 
ATOM      4  N   UNL     1       2.869   2.407  -1.201  1.00  0.00    -0.250 NA
ATOM      5  C   UNL     1       4.019   2.890  -0.709  1.00  0.00     0.138 A 
ATOM      6  C   UNL     1       4.963   2.069  -0.080  1.00  0.00     0.072 A 
ENDROOT
BRANCH   1   7
ATOM      7  C   UNL     1       5.752  -0.082   0.685  1.00  0.00     0.256 C 
ATOM      8  O   UNL     1       6.412  -0.862  -0.141  1.00  0.00    -0.269 OA
BRANCH   7   9
ATOM      9  N   UNL     1       6.206  -0.198   1.993  1.00  0.00    -0.337 N 
ATOM     10  C   UNL     1       7.865   1.152   3.187  1.00  0.00     0.076 C 
ATOM     11  C   UNL     1       6.418   1.085   2.710  1.00  0.00     0.138 C 
ATOM     12  C   UNL     1       8.191  -0.081   3.909  1.00  0.00     0.041 C 
ATOM     13  C   UNL     1       9.597  -0.348   4.288  1.00  0.00     0.165 C 
ATOM     14  C   UNL     1       7.984  -1.310   3.002  1.00  0.00     0.041 C 
ATOM     15  C   UNL     1       6.492  -1.347   2.806  1.00  0.00     0.126 C 
ATOM     16  O   UNL     1       9.693  -1.722   4.517  1.00  0.00    -0.381 OA
ATOM     17  C   UNL     1       8.561  -2.325   3.918  1.00  0.00     0.166 C 
BRANCH  10  18
ATOM     18  N   UNL     1       8.779   1.567   2.176  1.00  0.00    -0.326 NA
ATOM     19  H   UNL     1       8.576   1.240   1.229  1.00  0.00     0.119 HD
ATOM     20  H   UNL     1       9.743   1.382   2.531  1.00  0.00     0.119 HD
ENDBRANCH  10  18
ENDBRANCH   7   9
ENDBRANCH   1   7
BRANCH   6  21
ATOM     21  N   UNL     1       6.125   2.724   0.390  1.00  0.00    -0.319 N 
ATOM     22  C   UNL     1       6.239   4.149   0.480  1.00  0.00     0.276 C 
ATOM     23  H   UNL     1       6.926   2.088   0.676  1.00  0.00     0.170 HD
ATOM     24  O   UNL     1       5.222   4.781   0.110  1.00  0.00    -0.267 OA
BRANCH  22  25
ATOM     25  C   UNL     1       7.472   4.725   0.973  1.00  0.00     0.152 A 
ATOM     26  N   UNL     1       7.646   4.754   2.312  1.00  0.00    -0.245 NA
ATOM     27  C   UNL     1       8.475   5.238   0.202  1.00  0.00     0.070 A 
ATOM     28  C   UNL     1       8.714   5.240   2.949  1.00  0.00     0.045 A 
ATOM     29  C   UNL     1       9.590   5.748   0.829  1.00  0.00     0.030 A 
ATOM     30  C   UNL     1       9.740   5.763   2.210  1.00  0.00     0.026 A 
BRANCH  27  31
ATOM     31  N   UNL     1       8.385   5.229  -1.211  1.00  0.00    -0.351 N 
ATOM     32  H   UNL     1       8.022   6.015  -1.794  1.00  0.00     0.167 HD
BRANCH  31  33
ATOM     33  C   UNL     1       8.803   4.095  -2.003  1.00  0.00     0.076 A 
ATOM     34  C   UNL     1       8.747   2.838  -1.409  1.00  0.00     0.140 A 
ATOM     35  C   UNL     1       9.271   4.230  -3.289  1.00  0.00     0.140 A 
ATOM     36  N   UNL     1       9.156   1.767  -2.111  1.00  0.00    -0.243 NA
ATOM     37  N   UNL     1       9.669   3.125  -3.947  1.00  0.00    -0.243 NA
ATOM     38  C   UNL     1       9.616   1.914  -3.380  1.00  0.00     0.221 A 
ENDBRANCH  31  33
ENDBRANCH  27  31
BRANCH  28  39
ATOM     39  C   UNL     1       8.763   5.201   4.426  1.00  0.00     0.038 C 
ATOM     40  C   UNL     1       7.457   5.394   5.146  1.00  0.00     0.010 C 
ATOM     41  C   UNL     1       8.221   4.096   5.217  1.00  0.00     0.010 C 
ENDBRANCH  28  39
ENDBRANCH  22  25
ENDBRANCH   6  21
BRANCH   3  42
ATOM     42  C   UNL     1       1.352   0.565  -1.628  1.00  0.00     0.433 C 
ATOM     43  F   UNL     1       0.349   0.784  -0.683  1.00  0.00    -0.165 F 
ATOM     44  F   UNL     1       1.399  -0.797  -1.805  1.00  0.00    -0.165 F 
ATOM     45  F   UNL     1       1.040   1.235  -2.777  1.00  0.00    -0.165 F 
ENDBRANCH   3  42
TORSDOF 9
ENDMDL
MODEL 2
REMARK VINA RESULT:      11.9      1.323      1.591
REMARK SMILES NC1CN(C(=O)c2cc(C(F)(F)F)ncc2NC(=O)c2nc(C3CC3)ccc2Nc2cncnc2)CC2COCC12
REMARK SMILES IDX 7 1 8 2 9 3 14 4 15 5 16 6 5 7 6 8 4 9 2 10 3 11 41 12 40 13
REMARK SMILES IDX 37 14 36 15 39 16 38 17 1 18 17 21 18 22 19 24 20 25 21 26
REMARK SMILES IDX 28 27 22 28 27 29 26 30 29 31 30 33 31 34 35 35 32 36 34 37
REMARK SMILES IDX 33 38 23 39 24 40 25 41 10 42 11 43 12 44 13 45
REMARK H PARENT 1 19 1 20 17 23 29 32
ROOT
ATOM      1  C   UNL     1       4.506   0.696  -0.385  1.00  0.00     0.067 A 
ATOM      2  C   UNL     1       3.337   0.305  -0.985  1.00  0.00     0.049 A 
ATOM      3  C   UNL     1       2.382   1.206  -1.455  1.00  0.00     0.145 A 
ATOM      4  N   UNL     1       2.568   2.522  -1.338  1.00  0.00    -0.250 NA
ATOM      5  C   UNL     1       3.695   2.959  -0.758  1.00  0.00     0.138 A 
ATOM      6  C   UNL     1       4.674   2.081  -0.276  1.00  0.00     0.072 A 
ENDROOT
BRANCH   1   7
ATOM      7  C   UNL     1       5.556  -0.135   0.102  1.00  0.00     0.256 C 
ATOM      8  O   UNL     1       5.915  -1.085  -0.732  1.00  0.00    -0.269 OA
BRANCH   7   9
ATOM      9  N   UNL     1       6.294  -0.162   1.279  1.00  0.00    -0.337 N 
ATOM     10  C   UNL     1       6.135   1.289   3.246  1.00  0.00     0.076 C 
ATOM     11  C   UNL     1       5.522   0.095   2.521  1.00  0.00     0.138 C 
ATOM     12  C   UNL     1       7.578   1.077   3.387  1.00  0.00     0.041 C 
ATOM     13  C   UNL     1       8.429   2.189   3.869  1.00  0.00     0.165 C 
ATOM     14  C   UNL     1       8.235   0.898   2.004  1.00  0.00     0.041 C 
ATOM     15  C   UNL     1       7.685  -0.420   1.528  1.00  0.00     0.126 C 
ATOM     16  O   UNL     1       9.734   1.892   3.471  1.00  0.00    -0.381 OA
ATOM     17  C   UNL     1       9.647   0.906   2.460  1.00  0.00     0.166 C 
BRANCH  10  18
ATOM     18  N   UNL     1       5.715   2.547   2.726  1.00  0.00    -0.326 NA
ATOM     19  H   UNL     1       5.984   2.742   1.760  1.00  0.00     0.119 HD
ATOM     20  H   UNL     1       5.965   3.275   3.432  1.00  0.00     0.119 HD
ENDBRANCH  10  18
ENDBRANCH   7   9
ENDBRANCH   1   7
BRANCH   6  21
ATOM     21  N   UNL     1       5.807   2.692   0.312  1.00  0.00    -0.319 N 
ATOM     22  C   UNL     1       6.219   4.030   0.011  1.00  0.00     0.276 C 
ATOM     23  H   UNL     1       6.345   2.091   1.001  1.00  0.00     0.170 HD
ATOM     24  O   UNL     1       5.496   4.628  -0.820  1.00  0.00    -0.267 OA
BRANCH  22  25
ATOM     25  C   UNL     1       7.394   4.566   0.665  1.00  0.00     0.152 A 
ATOM     26  N   UNL     1       7.278   4.889   1.970  1.00  0.00    -0.245 NA
ATOM     27  C   UNL     1       8.609   4.769   0.077  1.00  0.00     0.070 A 
ATOM     28  C   UNL     1       8.249   5.391   2.739  1.00  0.00     0.045 A 
ATOM     29  C   UNL     1       9.631   5.286   0.842  1.00  0.00     0.030 A 
ATOM     30  C   UNL     1       9.481   5.609   2.185  1.00  0.00     0.026 A 
BRANCH  27  31
ATOM     31  N   UNL     1       8.825   4.438  -1.283  1.00  0.00    -0.351 N 
ATOM     32  H   UNL     1       8.986   5.127  -2.050  1.00  0.00     0.167 HD
BRANCH  31  33
ATOM     33  C   UNL     1       8.847   3.071  -1.749  1.00  0.00     0.076 A 
ATOM     34  C   UNL     1       9.549   2.142  -0.987  1.00  0.00     0.140 A 
ATOM     35  C   UNL     1       8.231   2.682  -2.916  1.00  0.00     0.140 A 
ATOM     36  N   UNL     1       9.611   0.867  -1.410  1.00  0.00    -0.243 NA
ATOM     37  N   UNL     1       8.325   1.393  -3.293  1.00  0.00    -0.243 NA
ATOM     38  C   UNL     1       8.998   0.496  -2.563  1.00  0.00     0.221 A 
ENDBRANCH  31  33
ENDBRANCH  27  31
BRANCH  28  39
ATOM     39  C   UNL     1       7.971   5.696   4.159  1.00  0.00     0.038 C 
ATOM     40  C   UNL     1       6.660   5.205   4.707  1.00  0.00     0.010 C 
ATOM     41  C   UNL     1       7.980   4.681   5.213  1.00  0.00     0.010 C 
ENDBRANCH  28  39
ENDBRANCH  22  25
ENDBRANCH   6  21
BRANCH   3  42
ATOM     42  C   UNL     1       1.133   0.720  -2.096  1.00  0.00     0.433 C 
ATOM     43  F   UNL     1       1.287  -0.639  -2.370  1.00  0.00    -0.165 F 
ATOM     44  F   UNL     1       0.911   1.318  -3.312  1.00  0.00    -0.165 F 
ATOM     45  F   UNL     1       0.091   0.887  -1.228  1.00  0.00    -0.165 F 
ENDBRANCH   3  42
TORSDOF 9
ENDMDL
