MODEL 1
REMARK VINA RESULT:      -4.1      0.000      0.000
REMARK SMILES O=C(O)c1ccc(C(=O)O)nc1
REMARK SMILES IDX 4 1 5 2 6 3 7 4 11 5 12 6 2 7 1 8 3 9 8 11 9 12 10 13
REMARK H PARENT 3 10 10 14
ROOT
ATOM      1  C   UNL     1       5.001   0.854   0.673  1.00  0.00     0.078 A 
ATOM      2  C   UNL     1       4.400   1.989   0.179  1.00  0.00     0.020 A 
ATOM      3  C   UNL     1       4.713   3.209   0.784  1.00  0.00     0.037 A 
ATOM      4  C   UNL     1       5.600   3.211   1.835  1.00  0.00     0.148 A 
ATOM      5  N   UNL     1       6.182   2.077   2.306  1.00  0.00    -0.248 NA
ATOM      6  C   UNL     1       5.889   0.891   1.730  1.00  0.00     0.127 A 
ENDROOT
BRANCH   1   7
ATOM      7  C   UNL     1       4.667  -0.412   0.033  1.00  0.00     0.337 C 
ATOM      8  O   UNL     1       3.457  -0.763  -0.023  1.00  0.00    -0.246 OA
BRANCH   7   9
ATOM      9  O   UNL     1       5.618  -1.258  -0.521  1.00  0.00    -0.478 OA
ATOM     10  H   UNL     1       5.623  -2.225  -0.180  1.00  0.00     0.297 HD
ENDBRANCH   7   9
ENDBRANCH   1   7
BRANCH   4  11
ATOM     11  C   UNL     1       5.917   4.493   2.458  1.00  0.00     0.354 C 
ATOM     12  O   UNL     1       5.896   4.577   3.713  1.00  0.00    -0.245 OA
BRANCH  11  13
ATOM     13  O   UNL     1       6.242   5.623   1.719  1.00  0.00    -0.477 OA
ATOM     14  H   UNL     1       6.665   5.547   0.780  1.00  0.00     0.297 HD
ENDBRANCH  11  13
ENDBRANCH   4  11
TORSDOF 4
ENDMDL
MODEL 2
REMARK VINA RESULT:      -4.1      2.674      3.708
REMARK SMILES O=C(O)c1ccc(C(=O)O)nc1
REMARK SMILES IDX 4 1 5 2 6 3 7 4 11 5 12 6 2 7 1 8 3 9 8 11 9 12 10 13
REMARK H PARENT 3 10 10 14
ROOT
ATOM      1  C   UNL     1       5.423   0.951   0.564  1.00  0.00     0.078 A 
ATOM      2  C   UNL     1       5.516  -0.396   0.832  1.00  0.00     0.020 A 
ATOM      3  C   UNL     1       6.108  -0.782   2.037  1.00  0.00     0.037 A 
ATOM      4  C   UNL     1       6.564   0.198   2.887  1.00  0.00     0.148 A 
ATOM      5  N   UNL     1       6.462   1.523   2.601  1.00  0.00    -0.248 NA
ATOM      6  C   UNL     1       5.891   1.910   1.440  1.00  0.00     0.127 A 
ENDROOT
BRANCH   1   7
ATOM      7  C   UNL     1       4.803   1.341  -0.696  1.00  0.00     0.337 C 
ATOM      8  O   UNL     1       3.751   0.751  -1.063  1.00  0.00    -0.246 OA
BRANCH   7   9
ATOM      9  O   UNL     1       5.314   2.337  -1.518  1.00  0.00    -0.478 OA
ATOM     10  H   UNL     1       4.645   2.802  -2.140  1.00  0.00     0.297 HD
ENDBRANCH   7   9
ENDBRANCH   1   7
BRANCH   4  11
ATOM     11  C   UNL     1       7.181  -0.220   4.143  1.00  0.00     0.354 C 
ATOM     12  O   UNL     1       6.807   0.328   5.212  1.00  0.00    -0.245 OA
BRANCH  11  13
ATOM     13  O   UNL     1       8.163  -1.199   4.203  1.00  0.00    -0.477 OA
ATOM     14  H   UNL     1       8.273  -1.800   5.035  1.00  0.00     0.297 HD
ENDBRANCH  11  13
ENDBRANCH   4  11
TORSDOF 4
ENDMDL
MODEL 3
REMARK VINA RESULT:      -4.0      2.224      4.218
REMARK SMILES O=C(O)c1ccc(C(=O)O)nc1
REMARK SMILES IDX 4 1 5 2 6 3 7 4 11 5 12 6 2 7 1 8 3 9 8 11 9 12 10 13
REMARK H PARENT 3 10 10 14
ROOT
ATOM      1  C   UNL     1       4.994   2.616   0.478  1.00  0.00     0.078 A 
ATOM      2  C   UNL     1       4.567   1.383   0.039  1.00  0.00     0.020 A 
ATOM      3  C   UNL     1       4.957   0.259   0.772  1.00  0.00     0.037 A 
ATOM      4  C   UNL     1       5.743   0.442   1.886  1.00  0.00     0.148 A 
ATOM      5  N   UNL     1       6.153   1.669   2.300  1.00  0.00    -0.248 NA
ATOM      6  C   UNL     1       5.783   2.765   1.602  1.00  0.00     0.127 A 
ENDROOT
BRANCH   1   7
ATOM      7  C   UNL     1       4.581   3.781  -0.294  1.00  0.00     0.337 C 
ATOM      8  O   UNL     1       4.255   4.832   0.322  1.00  0.00    -0.246 OA
BRANCH   7   9
ATOM      9  O   UNL     1       4.527   3.793  -1.681  1.00  0.00    -0.478 OA
ATOM     10  H   UNL     1       4.372   4.706  -2.123  1.00  0.00     0.297 HD
ENDBRANCH   7   9
ENDBRANCH   1   7
BRANCH   4  11
ATOM     11  C   UNL     1       6.143  -0.742   2.641  1.00  0.00     0.354 C 
ATOM     12  O   UNL     1       5.754  -0.859   3.831  1.00  0.00    -0.245 OA
BRANCH  11  13
ATOM     13  O   UNL     1       6.935  -1.743   2.095  1.00  0.00    -0.477 OA
ATOM     14  H   UNL     1       7.129  -2.615   2.613  1.00  0.00     0.297 HD
ENDBRANCH  11  13
ENDBRANCH   4  11
TORSDOF 4
ENDMDL
MODEL 4
REMARK VINA RESULT:      -4.0      3.205      4.211
REMARK SMILES O=C(O)c1ccc(C(=O)O)nc1
REMARK SMILES IDX 4 1 5 2 6 3 7 4 11 5 12 6 2 7 1 8 3 9 8 11 9 12 10 13
REMARK H PARENT 3 10 10 14
ROOT
ATOM      1  C   UNL     1       5.502   0.526   0.072  1.00  0.00     0.078 A 
ATOM      2  C   UNL     1       5.046  -0.062   1.230  1.00  0.00     0.020 A 
ATOM      3  C   UNL     1       5.995  -0.583   2.114  1.00  0.00     0.037 A 
ATOM      4  C   UNL     1       7.326  -0.483   1.782  1.00  0.00     0.148 A 
ATOM      5  N   UNL     1       7.752   0.102   0.631  1.00  0.00    -0.248 NA
ATOM      6  C   UNL     1       6.846   0.611  -0.232  1.00  0.00     0.127 A 
ENDROOT
BRANCH   1   7
ATOM      7  C   UNL     1       4.503   1.066  -0.842  1.00  0.00     0.337 C 
ATOM      8  O   UNL     1       3.357   0.540  -0.868  1.00  0.00    -0.246 OA
BRANCH   7   9
ATOM      9  O   UNL     1       4.750   2.137  -1.690  1.00  0.00    -0.478 OA
ATOM     10  H   UNL     1       4.284   3.020  -1.458  1.00  0.00     0.297 HD
ENDBRANCH   7   9
ENDBRANCH   1   7
BRANCH   4  11
ATOM     11  C   UNL     1       8.305  -1.032   2.714  1.00  0.00     0.354 C 
ATOM     12  O   UNL     1       8.770  -0.284   3.612  1.00  0.00    -0.245 OA
BRANCH  11  13
ATOM     13  O   UNL     1       8.743  -2.348   2.648  1.00  0.00    -0.477 OA
ATOM     14  H   UNL     1       8.114  -3.108   2.344  1.00  0.00     0.297 HD
ENDBRANCH  11  13
ENDBRANCH   4  11
TORSDOF 4
ENDMDL
MODEL 5
REMARK VINA RESULT:      -4.0      2.860      3.758
REMARK SMILES O=C(O)c1ccc(C(=O)O)nc1
REMARK SMILES IDX 4 1 5 2 6 3 7 4 11 5 12 6 2 7 1 8 3 9 8 11 9 12 10 13
REMARK H PARENT 3 10 10 14
ROOT
ATOM      1  C   UNL     1       5.170   0.946   0.249  1.00  0.00     0.078 A 
ATOM      2  C   UNL     1       5.825   1.851   1.053  1.00  0.00     0.020 A 
ATOM      3  C   UNL     1       6.392   1.379   2.240  1.00  0.00     0.037 A 
ATOM      4  C   UNL     1       6.266   0.043   2.541  1.00  0.00     0.148 A 
ATOM      5  N   UNL     1       5.613  -0.833   1.732  1.00  0.00    -0.248 NA
ATOM      6  C   UNL     1       5.061  -0.391   0.582  1.00  0.00     0.127 A 
ENDROOT
BRANCH   1   7
ATOM      7  C   UNL     1       4.583   1.449  -0.986  1.00  0.00     0.337 C 
ATOM      8  O   UNL     1       3.521   0.919  -1.414  1.00  0.00    -0.246 OA
BRANCH   7   9
ATOM      9  O   UNL     1       5.135   2.490  -1.721  1.00  0.00    -0.478 OA
ATOM     10  H   UNL     1       4.882   3.439  -1.427  1.00  0.00     0.297 HD
ENDBRANCH   7   9
ENDBRANCH   1   7
BRANCH   4  11
ATOM     11  C   UNL     1       6.862  -0.435   3.784  1.00  0.00     0.354 C 
ATOM     12  O   UNL     1       8.098  -0.280   3.960  1.00  0.00    -0.245 OA
BRANCH  11  13
ATOM     13  O   UNL     1       6.119  -1.054   4.780  1.00  0.00    -0.477 OA
ATOM     14  H   UNL     1       5.895  -0.569   5.663  1.00  0.00     0.297 HD
ENDBRANCH  11  13
ENDBRANCH   4  11
TORSDOF 4
ENDMDL
MODEL 6
REMARK VINA RESULT:      -4.0      2.275      4.300
REMARK SMILES O=C(O)c1ccc(C(=O)O)nc1
REMARK SMILES IDX 4 1 5 2 6 3 7 4 11 5 12 6 2 7 1 8 3 9 8 11 9 12 10 13
REMARK H PARENT 3 10 10 14
ROOT
ATOM      1  C   UNL     1       4.980   2.594   0.520  1.00  0.00     0.078 A 
ATOM      2  C   UNL     1       4.261   1.428   0.387  1.00  0.00     0.020 A 
ATOM      3  C   UNL     1       4.674   0.319   1.132  1.00  0.00     0.037 A 
ATOM      4  C   UNL     1       5.769   0.451   1.953  1.00  0.00     0.148 A 
ATOM      5  N   UNL     1       6.464   1.613   2.067  1.00  0.00    -0.248 NA
ATOM      6  C   UNL     1       6.077   2.693   1.354  1.00  0.00     0.127 A 
ENDROOT
BRANCH   1   7
ATOM      7  C   UNL     1       4.541   3.743  -0.262  1.00  0.00     0.337 C 
ATOM      8  O   UNL     1       4.529   3.652  -1.520  1.00  0.00    -0.246 OA
BRANCH   7   9
ATOM      9  O   UNL     1       4.133   4.940   0.311  1.00  0.00    -0.478 OA
ATOM     10  H   UNL     1       3.332   4.890   0.949  1.00  0.00     0.297 HD
ENDBRANCH   7   9
ENDBRANCH   1   7
BRANCH   4  11
ATOM     11  C   UNL     1       6.188  -0.715   2.724  1.00  0.00     0.354 C 
ATOM     12  O   UNL     1       7.147  -1.409   2.298  1.00  0.00    -0.245 OA
BRANCH  11  13
ATOM     13  O   UNL     1       5.570  -1.088   3.910  1.00  0.00    -0.477 OA
ATOM     14  H   UNL     1       4.573  -0.886   4.082  1.00  0.00     0.297 HD
ENDBRANCH  11  13
ENDBRANCH   4  11
TORSDOF 4
ENDMDL
MODEL 7
REMARK VINA RESULT:      -4.0      1.894      2.165
REMARK SMILES O=C(O)c1ccc(C(=O)O)nc1
REMARK SMILES IDX 4 1 5 2 6 3 7 4 11 5 12 6 2 7 1 8 3 9 8 11 9 12 10 13
REMARK H PARENT 3 10 10 14
ROOT
ATOM      1  C   UNL     1       5.070   0.848  -0.232  1.00  0.00     0.078 A 
ATOM      2  C   UNL     1       4.429   1.687  -1.115  1.00  0.00     0.020 A 
ATOM      3  C   UNL     1       4.881   3.006  -1.206  1.00  0.00     0.037 A 
ATOM      4  C   UNL     1       5.935   3.395  -0.413  1.00  0.00     0.148 A 
ATOM      5  N   UNL     1       6.552   2.548   0.453  1.00  0.00    -0.248 NA
ATOM      6  C   UNL     1       6.127   1.270   0.551  1.00  0.00     0.127 A 
ENDROOT
BRANCH   1   7
ATOM      7  C   UNL     1       4.590  -0.526  -0.146  1.00  0.00     0.337 C 
ATOM      8  O   UNL     1       3.372  -0.728   0.110  1.00  0.00    -0.246 OA
BRANCH   7   9
ATOM      9  O   UNL     1       5.411  -1.630  -0.333  1.00  0.00    -0.478 OA
ATOM     10  H   UNL     1       5.792  -1.760  -1.276  1.00  0.00     0.297 HD
ENDBRANCH   7   9
ENDBRANCH   1   7
BRANCH   4  11
ATOM     11  C   UNL     1       6.396   4.776  -0.518  1.00  0.00     0.354 C 
ATOM     12  O   UNL     1       7.421   5.020  -1.205  1.00  0.00    -0.245 OA
BRANCH  11  13
ATOM     13  O   UNL     1       5.745   5.830   0.109  1.00  0.00    -0.477 OA
ATOM     14  H   UNL     1       5.633   6.745  -0.356  1.00  0.00     0.297 HD
ENDBRANCH  11  13
ENDBRANCH   4  11
TORSDOF 4
ENDMDL
MODEL 8
REMARK VINA RESULT:      -4.0      2.784      3.756
REMARK SMILES O=C(O)c1ccc(C(=O)O)nc1
REMARK SMILES IDX 4 1 5 2 6 3 7 4 11 5 12 6 2 7 1 8 3 9 8 11 9 12 10 13
REMARK H PARENT 3 10 10 14
ROOT
ATOM      1  C   UNL     1       5.394   1.323   0.659  1.00  0.00     0.078 A 
ATOM      2  C   UNL     1       6.222   2.143   1.392  1.00  0.00     0.020 A 
ATOM      3  C   UNL     1       6.802   1.616   2.549  1.00  0.00     0.037 A 
ATOM      4  C   UNL     1       6.517   0.315   2.892  1.00  0.00     0.148 A 
ATOM      5  N   UNL     1       5.696  -0.475   2.152  1.00  0.00    -0.248 NA
ATOM      6  C   UNL     1       5.129   0.020   1.031  1.00  0.00     0.127 A 
ENDROOT
BRANCH   1   7
ATOM      7  C   UNL     1       4.795   1.883  -0.546  1.00  0.00     0.337 C 
ATOM      8  O   UNL     1       4.689   3.136  -0.645  1.00  0.00    -0.246 OA
BRANCH   7   9
ATOM      9  O   UNL     1       4.332   1.103  -1.598  1.00  0.00    -0.478 OA
ATOM     10  H   UNL     1       3.507   1.454  -2.096  1.00  0.00     0.297 HD
ENDBRANCH   7   9
ENDBRANCH   1   7
BRANCH   4  11
ATOM     11  C   UNL     1       7.130  -0.221   4.104  1.00  0.00     0.354 C 
ATOM     12  O   UNL     1       6.765   0.235   5.218  1.00  0.00    -0.245 OA
BRANCH  11  13
ATOM     13  O   UNL     1       8.100  -1.214   4.074  1.00  0.00    -0.477 OA
ATOM     14  H   UNL     1       8.853  -1.250   4.780  1.00  0.00     0.297 HD
ENDBRANCH  11  13
ENDBRANCH   4  11
TORSDOF 4
ENDMDL
MODEL 9
REMARK VINA RESULT:      -4.0      2.573      3.158
REMARK SMILES O=C(O)c1ccc(C(=O)O)nc1
REMARK SMILES IDX 4 1 5 2 6 3 7 4 11 5 12 6 2 7 1 8 3 9 8 11 9 12 10 13
REMARK H PARENT 3 10 10 14
ROOT
ATOM      1  C   UNL     1       5.930   0.198   1.476  1.00  0.00     0.078 A 
ATOM      2  C   UNL     1       5.206  -0.120   0.350  1.00  0.00     0.020 A 
ATOM      3  C   UNL     1       4.862   0.920  -0.519  1.00  0.00     0.037 A 
ATOM      4  C   UNL     1       5.263   2.197  -0.204  1.00  0.00     0.148 A 
ATOM      5  N   UNL     1       5.978   2.487   0.915  1.00  0.00    -0.248 NA
ATOM      6  C   UNL     1       6.317   1.493   1.763  1.00  0.00     0.127 A 
ENDROOT
BRANCH   1   7
ATOM      7  C   UNL     1       6.284  -0.894   2.375  1.00  0.00     0.337 C 
ATOM      8  O   UNL     1       5.835  -0.879   3.553  1.00  0.00    -0.246 OA
BRANCH   7   9
ATOM      9  O   UNL     1       7.093  -1.957   1.998  1.00  0.00    -0.478 OA
ATOM     10  H   UNL     1       6.645  -2.700   1.453  1.00  0.00     0.297 HD
ENDBRANCH   7   9
ENDBRANCH   1   7
BRANCH   4  11
ATOM     11  C   UNL     1       4.896   3.273  -1.121  1.00  0.00     0.354 C 
ATOM     12  O   UNL     1       4.470   4.355  -0.642  1.00  0.00    -0.245 OA
BRANCH  11  13
ATOM     13  O   UNL     1       4.999   3.147  -2.500  1.00  0.00    -0.477 OA
ATOM     14  H   UNL     1       4.745   2.268  -2.979  1.00  0.00     0.297 HD
ENDBRANCH  11  13
ENDBRANCH   4  11
TORSDOF 4
ENDMDL
