MODEL 1
REMARK VINA RESULT:      -3.1      0.000      0.000
REMARK SMILES NS(=O)(=O)NCCCn1cnc(-c2ccc(F)cc2)c1-c1ccccn1
REMARK SMILES IDX 6 1 5 2 2 4 3 5 4 6 1 7 7 10 8 11 9 12 10 13 20 14 11 15
REMARK SMILES IDX 12 16 21 17 22 18 26 19 23 20 25 21 24 22 13 23 14 24 19 25
REMARK SMILES IDX 15 26 18 27 16 28 17 29
REMARK H PARENT 5 3 1 8 1 9
ROOT
ATOM      1  C   UNL     1       5.879   4.006  -1.212  1.00  0.00     0.101 C 
ENDROOT
BRANCH   1   2
ATOM      2  N   UNL     1       6.689   5.144  -0.812  1.00  0.00    -0.202 NA
ATOM      3  H   UNL     1       6.471   5.929  -1.460  1.00  0.00     0.142 HD
BRANCH   2   4
ATOM      4  S   UNL     1       8.345   4.666  -1.080  1.00  0.00     0.274 S 
ATOM      5  O   UNL     1       9.056   4.427   0.224  1.00  0.00    -0.195 OA
ATOM      6  O   UNL     1       9.014   5.741  -1.879  1.00  0.00    -0.195 OA
BRANCH   4   7
ATOM      7  N   UNL     1       8.410   3.178  -1.955  1.00  0.00    -0.216 NA
ATOM      8  H   UNL     1       7.749   3.115  -2.736  1.00  0.00     0.138 HD
ATOM      9  H   UNL     1       9.384   2.933  -2.150  1.00  0.00     0.138 HD
ENDBRANCH   4   7
ENDBRANCH   2   4
ENDBRANCH   1   2
BRANCH   1  10
ATOM     10  C   UNL     1       4.541   3.947  -0.524  1.00  0.00     0.038 C 
BRANCH  10  11
ATOM     11  C   UNL     1       4.587   4.476   0.884  1.00  0.00     0.125 C 
BRANCH  11  12
ATOM     12  N   UNL     1       5.651   3.899   1.665  1.00  0.00    -0.329 N 
ATOM     13  C   UNL     1       6.478   4.660   2.439  1.00  0.00     0.200 A 
ATOM     14  C   UNL     1       6.015   2.609   1.783  1.00  0.00     0.095 A 
ATOM     15  N   UNL     1       7.342   3.803   3.021  1.00  0.00    -0.236 NA
ATOM     16  C   UNL     1       7.091   2.536   2.643  1.00  0.00     0.098 A 
BRANCH  14  17
ATOM     17  C   UNL     1       5.342   1.506   1.087  1.00  0.00     0.089 A 
ATOM     18  C   UNL     1       6.091   0.898   0.077  1.00  0.00     0.030 A 
ATOM     19  N   UNL     1       4.110   1.095   1.378  1.00  0.00    -0.255 NA
ATOM     20  C   UNL     1       5.574  -0.161  -0.662  1.00  0.00     0.004 A 
ATOM     21  C   UNL     1       3.589   0.084   0.686  1.00  0.00     0.112 A 
ATOM     22  C   UNL     1       4.287  -0.553  -0.323  1.00  0.00     0.020 A 
ENDBRANCH  14  17
BRANCH  16  23
ATOM     23  C   UNL     1       7.797   1.326   3.051  1.00  0.00     0.003 A 
ATOM     24  C   UNL     1       6.997   0.306   3.575  1.00  0.00     0.013 A 
ATOM     25  C   UNL     1       9.162   1.173   2.937  1.00  0.00     0.013 A 
ATOM     26  C   UNL     1       7.580  -0.876   3.986  1.00  0.00     0.040 A 
ATOM     27  C   UNL     1       9.736  -0.027   3.356  1.00  0.00     0.040 A 
ATOM     28  C   UNL     1       8.935  -1.024   3.872  1.00  0.00     0.123 A 
ATOM     29  F   UNL     1       9.512  -2.177   4.273  1.00  0.00    -0.207 F 
ENDBRANCH  16  23
ENDBRANCH  11  12
ENDBRANCH  10  11
ENDBRANCH   1  10
TORSDOF 8
ENDMDL
MODEL 2
REMARK VINA RESULT:      -2.3      4.095      5.524
REMARK SMILES NS(=O)(=O)NCCCn1cnc(-c2ccc(F)cc2)c1-c1ccccn1
REMARK SMILES IDX 6 1 5 2 2 4 3 5 4 6 1 7 7 10 8 11 9 12 10 13 20 14 11 15
REMARK SMILES IDX 12 16 21 17 22 18 26 19 23 20 25 21 24 22 13 23 14 24 19 25
REMARK SMILES IDX 15 26 18 27 16 28 17 29
REMARK H PARENT 5 3 1 8 1 9
ROOT
ATOM      1  C   UNL     1       6.523  -0.717   1.974  1.00  0.00     0.101 C 
ENDROOT
BRANCH   1   2
ATOM      2  N   UNL     1       7.257  -1.965   2.089  1.00  0.00    -0.202 NA
ATOM      3  H   UNL     1       6.795  -2.536   2.828  1.00  0.00     0.142 HD
BRANCH   2   4
ATOM      4  S   UNL     1       8.848  -1.530   2.659  1.00  0.00     0.274 S 
ATOM      5  O   UNL     1       8.765  -0.656   3.880  1.00  0.00    -0.195 OA
ATOM      6  O   UNL     1       9.568  -0.842   1.541  1.00  0.00    -0.195 OA
BRANCH   4   7
ATOM      7  N   UNL     1       9.729  -2.942   3.123  1.00  0.00    -0.216 NA
ATOM      8  H   UNL     1       9.515  -3.287   4.064  1.00  0.00     0.138 HD
ATOM      9  H   UNL     1       9.712  -3.626   2.363  1.00  0.00     0.138 HD
ENDBRANCH   4   7
ENDBRANCH   2   4
ENDBRANCH   1   2
BRANCH   1  10
ATOM     10  C   UNL     1       6.266  -0.045   3.296  1.00  0.00     0.038 C 
BRANCH  10  11
ATOM     11  C   UNL     1       6.433   1.450   3.231  1.00  0.00     0.125 C 
BRANCH  11  12
ATOM     12  N   UNL     1       7.429   1.862   2.275  1.00  0.00    -0.329 N 
ATOM     13  C   UNL     1       8.711   2.153   2.642  1.00  0.00     0.200 A 
ATOM     14  C   UNL     1       7.312   2.028   0.945  1.00  0.00     0.095 A 
ATOM     15  N   UNL     1       9.357   2.496   1.508  1.00  0.00    -0.236 NA
ATOM     16  C   UNL     1       8.533   2.432   0.446  1.00  0.00     0.098 A 
BRANCH  14  17
ATOM     17  C   UNL     1       6.066   1.802   0.202  1.00  0.00     0.089 A 
ATOM     18  C   UNL     1       6.071   0.686  -0.639  1.00  0.00     0.030 A 
ATOM     19  N   UNL     1       4.997   2.587   0.303  1.00  0.00    -0.255 NA
ATOM     20  C   UNL     1       4.955   0.356  -1.400  1.00  0.00     0.004 A 
ATOM     21  C   UNL     1       3.913   2.296  -0.415  1.00  0.00     0.112 A 
ATOM     22  C   UNL     1       3.866   1.204  -1.261  1.00  0.00     0.020 A 
ENDBRANCH  14  17
BRANCH  16  23
ATOM     23  C   UNL     1       8.849   2.724  -0.948  1.00  0.00     0.003 A 
ATOM     24  C   UNL     1       8.996   1.610  -1.780  1.00  0.00     0.013 A 
ATOM     25  C   UNL     1       8.997   4.004  -1.438  1.00  0.00     0.013 A 
ATOM     26  C   UNL     1       9.295   1.790  -3.116  1.00  0.00     0.040 A 
ATOM     27  C   UNL     1       9.300   4.170  -2.789  1.00  0.00     0.040 A 
ATOM     28  C   UNL     1       9.442   3.062  -3.598  1.00  0.00     0.123 A 
ATOM     29  F   UNL     1       9.736   3.246  -4.904  1.00  0.00    -0.207 F 
ENDBRANCH  16  23
ENDBRANCH  11  12
ENDBRANCH  10  11
ENDBRANCH   1  10
TORSDOF 8
ENDMDL
MODEL 3
REMARK VINA RESULT:      -2.2      2.138      4.284
REMARK SMILES NS(=O)(=O)NCCCn1cnc(-c2ccc(F)cc2)c1-c1ccccn1
REMARK SMILES IDX 6 1 5 2 2 4 3 5 4 6 1 7 7 10 8 11 9 12 10 13 20 14 11 15
REMARK SMILES IDX 12 16 21 17 22 18 26 19 23 20 25 21 24 22 13 23 14 24 19 25
REMARK SMILES IDX 15 26 18 27 16 28 17 29
REMARK H PARENT 5 3 1 8 1 9
ROOT
ATOM      1  C   UNL     1       8.645   5.678   0.766  1.00  0.00     0.101 C 
ENDROOT
BRANCH   1   2
ATOM      2  N   UNL     1       9.184   4.433   0.248  1.00  0.00    -0.202 NA
ATOM      3  H   UNL     1      10.202   4.576   0.080  1.00  0.00     0.142 HD
BRANCH   2   4
ATOM      4  S   UNL     1       8.412   4.186  -1.297  1.00  0.00     0.274 S 
ATOM      5  O   UNL     1       8.630   2.783  -1.792  1.00  0.00    -0.195 OA
ATOM      6  O   UNL     1       8.961   5.197  -2.256  1.00  0.00    -0.195 OA
BRANCH   4   7
ATOM      7  N   UNL     1       6.703   4.399  -1.158  1.00  0.00    -0.216 NA
ATOM      8  H   UNL     1       6.177   3.532  -1.012  1.00  0.00     0.138 HD
ATOM      9  H   UNL     1       6.502   5.177  -0.524  1.00  0.00     0.138 HD
ENDBRANCH   4   7
ENDBRANCH   2   4
ENDBRANCH   1   2
BRANCH   1  10
ATOM     10  C   UNL     1       8.839   5.847   2.249  1.00  0.00     0.038 C 
BRANCH  10  11
ATOM     11  C   UNL     1       8.062   4.841   3.056  1.00  0.00     0.125 C 
BRANCH  11  12
ATOM     12  N   UNL     1       6.963   4.264   2.325  1.00  0.00    -0.329 N 
ATOM     13  C   UNL     1       5.976   5.029   1.776  1.00  0.00     0.200 A 
ATOM     14  C   UNL     1       6.708   2.971   2.057  1.00  0.00     0.095 A 
ATOM     15  N   UNL     1       5.126   4.171   1.175  1.00  0.00    -0.236 NA
ATOM     16  C   UNL     1       5.540   2.898   1.325  1.00  0.00     0.098 A 
BRANCH  14  17
ATOM     17  C   UNL     1       7.565   1.862   2.496  1.00  0.00     0.089 A 
ATOM     18  C   UNL     1       6.990   1.006   3.438  1.00  0.00     0.030 A 
ATOM     19  N   UNL     1       8.801   1.665   2.045  1.00  0.00    -0.255 NA
ATOM     20  C   UNL     1       7.691  -0.085   3.938  1.00  0.00     0.004 A 
ATOM     21  C   UNL     1       9.497   0.628   2.507  1.00  0.00     0.112 A 
ATOM     22  C   UNL     1       8.976  -0.249   3.439  1.00  0.00     0.020 A 
ENDBRANCH  14  17
BRANCH  16  23
ATOM     23  C   UNL     1       4.901   1.686   0.824  1.00  0.00     0.003 A 
ATOM     24  C   UNL     1       3.599   1.457   1.281  1.00  0.00     0.013 A 
ATOM     25  C   UNL     1       5.518   0.810  -0.042  1.00  0.00     0.013 A 
ATOM     26  C   UNL     1       2.917   0.334   0.858  1.00  0.00     0.040 A 
ATOM     27  C   UNL     1       4.815  -0.320  -0.460  1.00  0.00     0.040 A 
ATOM     28  C   UNL     1       3.532  -0.534  -0.002  1.00  0.00     0.123 A 
ATOM     29  F   UNL     1       2.870  -1.635  -0.419  1.00  0.00    -0.207 F 
ENDBRANCH  16  23
ENDBRANCH  11  12
ENDBRANCH  10  11
ENDBRANCH   1  10
TORSDOF 8
ENDMDL
MODEL 4
REMARK VINA RESULT:      -1.0      3.166      5.538
REMARK SMILES NS(=O)(=O)NCCCn1cnc(-c2ccc(F)cc2)c1-c1ccccn1
REMARK SMILES IDX 6 1 5 2 2 4 3 5 4 6 1 7 7 10 8 11 9 12 10 13 20 14 11 15
REMARK SMILES IDX 12 16 21 17 22 18 26 19 23 20 25 21 24 22 13 23 14 24 19 25
REMARK SMILES IDX 15 26 18 27 16 28 17 29
REMARK H PARENT 5 3 1 8 1 9
ROOT
ATOM      1  C   UNL     1       8.474   4.575   3.342  1.00  0.00     0.101 C 
ENDROOT
BRANCH   1   2
ATOM      2  N   UNL     1       7.229   4.360   4.058  1.00  0.00    -0.202 NA
ATOM      3  H   UNL     1       7.085   3.332   4.138  1.00  0.00     0.142 HD
BRANCH   2   4
ATOM      4  S   UNL     1       5.973   5.003   3.032  1.00  0.00     0.274 S 
ATOM      5  O   UNL     1       6.558   5.794   1.894  1.00  0.00    -0.195 OA
ATOM      6  O   UNL     1       5.071   5.847   3.877  1.00  0.00    -0.195 OA
BRANCH   4   7
ATOM      7  N   UNL     1       5.059   3.721   2.322  1.00  0.00    -0.216 NA
ATOM      8  H   UNL     1       4.062   3.925   2.201  1.00  0.00     0.138 HD
ATOM      9  H   UNL     1       5.558   3.348   1.510  1.00  0.00     0.138 HD
ENDBRANCH   4   7
ENDBRANCH   2   4
ENDBRANCH   1   2
BRANCH   1  10
ATOM     10  C   UNL     1       9.480   3.472   3.538  1.00  0.00     0.038 C 
BRANCH  10  11
ATOM     11  C   UNL     1       9.491   2.485   2.401  1.00  0.00     0.125 C 
BRANCH  11  12
ATOM     12  N   UNL     1       8.182   1.964   2.098  1.00  0.00    -0.329 N 
ATOM     13  C   UNL     1       7.466   1.232   3.001  1.00  0.00     0.200 A 
ATOM     14  C   UNL     1       7.462   2.080   0.968  1.00  0.00     0.095 A 
ATOM     15  N   UNL     1       6.307   0.914   2.390  1.00  0.00    -0.236 NA
ATOM     16  C   UNL     1       6.266   1.415   1.141  1.00  0.00     0.098 A 
BRANCH  14  17
ATOM     17  C   UNL     1       7.924   2.806  -0.222  1.00  0.00     0.089 A 
ATOM     18  C   UNL     1       7.845   4.197  -0.135  1.00  0.00     0.030 A 
ATOM     19  N   UNL     1       8.388   2.206  -1.315  1.00  0.00    -0.255 NA
ATOM     20  C   UNL     1       8.250   5.007  -1.190  1.00  0.00     0.004 A 
ATOM     21  C   UNL     1       8.783   2.956  -2.342  1.00  0.00     0.112 A 
ATOM     22  C   UNL     1       8.726   4.336  -2.309  1.00  0.00     0.020 A 
ENDBRANCH  14  17
BRANCH  16  23
ATOM     23  C   UNL     1       5.190   1.292   0.164  1.00  0.00     0.003 A 
ATOM     24  C   UNL     1       4.243   0.298   0.430  1.00  0.00     0.013 A 
ATOM     25  C   UNL     1       5.090   2.091  -0.954  1.00  0.00     0.013 A 
ATOM     26  C   UNL     1       3.188   0.110  -0.440  1.00  0.00     0.040 A 
ATOM     27  C   UNL     1       4.018   1.889  -1.824  1.00  0.00     0.040 A 
ATOM     28  C   UNL     1       3.092   0.905  -1.550  1.00  0.00     0.123 A 
ATOM     29  F   UNL     1       2.063   0.726  -2.406  1.00  0.00    -0.207 F 
ENDBRANCH  16  23
ENDBRANCH  11  12
ENDBRANCH  10  11
ENDBRANCH   1  10
TORSDOF 8
ENDMDL
MODEL 5
REMARK VINA RESULT:      -0.3      2.810      4.533
REMARK SMILES NS(=O)(=O)NCCCn1cnc(-c2ccc(F)cc2)c1-c1ccccn1
REMARK SMILES IDX 6 1 5 2 2 4 3 5 4 6 1 7 7 10 8 11 9 12 10 13 20 14 11 15
REMARK SMILES IDX 12 16 21 17 22 18 26 19 23 20 25 21 24 22 13 23 14 24 19 25
REMARK SMILES IDX 15 26 18 27 16 28 17 29
REMARK H PARENT 5 3 1 8 1 9
ROOT
ATOM      1  C   UNL     1       8.416   4.842   0.939  1.00  0.00     0.101 C 
ENDROOT
BRANCH   1   2
ATOM      2  N   UNL     1       8.351   5.408   2.275  1.00  0.00    -0.202 NA
ATOM      3  H   UNL     1       9.206   5.985   2.415  1.00  0.00     0.142 HD
BRANCH   2   4
ATOM      4  S   UNL     1       8.428   4.052   3.371  1.00  0.00     0.274 S 
ATOM      5  O   UNL     1       9.730   4.042   4.126  1.00  0.00    -0.195 OA
ATOM      6  O   UNL     1       8.250   2.799   2.571  1.00  0.00    -0.195 OA
BRANCH   4   7
ATOM      7  N   UNL     1       7.174   4.160   4.553  1.00  0.00    -0.216 NA
ATOM      8  H   UNL     1       7.452   4.614   5.429  1.00  0.00     0.138 HD
ATOM      9  H   UNL     1       6.311   4.489   4.113  1.00  0.00     0.138 HD
ENDBRANCH   4   7
ENDBRANCH   2   4
ENDBRANCH   1   2
BRANCH   1  10
ATOM     10  C   UNL     1       8.175   5.847  -0.154  1.00  0.00     0.038 C 
BRANCH  10  11
ATOM     11  C   UNL     1       6.753   5.839  -0.648  1.00  0.00     0.125 C 
BRANCH  11  12
ATOM     12  N   UNL     1       6.027   4.661  -0.249  1.00  0.00    -0.329 N 
ATOM     13  C   UNL     1       4.843   4.731   0.425  1.00  0.00     0.200 A 
ATOM     14  C   UNL     1       6.339   3.366  -0.441  1.00  0.00     0.095 A 
ATOM     15  N   UNL     1       4.452   3.457   0.632  1.00  0.00    -0.236 NA
ATOM     16  C   UNL     1       5.343   2.590   0.116  1.00  0.00     0.098 A 
BRANCH  14  17
ATOM     17  C   UNL     1       7.550   2.913  -1.135  1.00  0.00     0.089 A 
ATOM     18  C   UNL     1       7.776   3.504  -2.381  1.00  0.00     0.030 A 
ATOM     19  N   UNL     1       8.388   2.008  -0.637  1.00  0.00    -0.255 NA
ATOM     20  C   UNL     1       8.887   3.167  -3.145  1.00  0.00     0.004 A 
ATOM     21  C   UNL     1       9.461   1.665  -1.347  1.00  0.00     0.112 A 
ATOM     22  C   UNL     1       9.731   2.219  -2.584  1.00  0.00     0.020 A 
ENDBRANCH  14  17
BRANCH  16  23
ATOM     23  C   UNL     1       5.283   1.133   0.132  1.00  0.00     0.003 A 
ATOM     24  C   UNL     1       6.103   0.504   1.074  1.00  0.00     0.013 A 
ATOM     25  C   UNL     1       4.479   0.400  -0.716  1.00  0.00     0.013 A 
ATOM     26  C   UNL     1       6.109  -0.874   1.161  1.00  0.00     0.040 A 
ATOM     27  C   UNL     1       4.497  -0.991  -0.615  1.00  0.00     0.040 A 
ATOM     28  C   UNL     1       5.311  -1.598   0.318  1.00  0.00     0.123 A 
ATOM     29  F   UNL     1       5.314  -2.946   0.398  1.00  0.00    -0.207 F 
ENDBRANCH  16  23
ENDBRANCH  11  12
ENDBRANCH  10  11
ENDBRANCH   1  10
TORSDOF 8
ENDMDL
