MODEL 1
REMARK VINA RESULT:      -3.6      0.000      0.000
REMARK SMILES COc1ccccc1NC(=O)NN=C1C(=O)Nc2ccc(Cl)cc21
REMARK SMILES IDX 9 1 10 2 11 3 12 4 8 7 3 8 4 9 5 10 7 11 6 12 2 13 1 14
REMARK SMILES IDX 13 15 14 16 15 17 24 18 17 19 23 20 18 21 21 22 19 23 20 24
REMARK SMILES IDX 16 25 22 27
REMARK H PARENT 9 5 12 6 17 26
ROOT
ATOM      1  N   UNL     1       7.244   1.815  -0.862  1.00  0.00    -0.303 N 
ATOM      2  C   UNL     1       7.586   0.760   0.010  1.00  0.00     0.339 C 
ATOM      3  O   UNL     1       8.712   0.247   0.033  1.00  0.00    -0.246 OA
ATOM      4  N   UNL     1       6.617   0.220   0.935  1.00  0.00    -0.228 N 
ATOM      5  H   UNL     1       6.236   2.156  -0.770  1.00  0.00     0.172 HD
ATOM      6  H   UNL     1       5.637   0.610   0.969  1.00  0.00     0.195 HD
ENDROOT
BRANCH   1   7
ATOM      7  C   UNL     1       8.074   2.428  -1.800  1.00  0.00     0.085 A 
ATOM      8  C   UNL     1       8.302   3.804  -1.655  1.00  0.00     0.142 A 
ATOM      9  C   UNL     1       9.104   4.479  -2.534  1.00  0.00     0.048 A 
ATOM     10  C   UNL     1       9.729   3.865  -3.599  1.00  0.00     0.004 A 
ATOM     11  C   UNL     1       8.697   1.834  -2.857  1.00  0.00     0.030 A 
ATOM     12  C   UNL     1       9.515   2.515  -3.755  1.00  0.00     0.002 A 
BRANCH   8  13
ATOM     13  O   UNL     1       7.722   4.526  -0.616  1.00  0.00    -0.495 OA
ATOM     14  C   UNL     1       6.508   4.104   0.002  1.00  0.00     0.278 C 
ENDBRANCH   8  13
ENDBRANCH   1   7
BRANCH   4  15
ATOM     15  N   UNL     1       6.989  -0.826   1.786  1.00  0.00    -0.165 NA
BRANCH  15  16
ATOM     16  C   UNL     1       7.871  -0.577   2.696  1.00  0.00     0.158 C 
ATOM     17  C   UNL     1       8.896  -1.447   3.261  1.00  0.00     0.276 C 
ATOM     18  C   UNL     1       8.015   0.707   3.373  1.00  0.00     0.033 A 
ATOM     19  N   UNL     1       9.613  -0.695   4.234  1.00  0.00    -0.320 N 
ATOM     20  C   UNL     1       7.318   1.896   3.244  1.00  0.00     0.033 A 
ATOM     21  C   UNL     1       9.051   0.616   4.279  1.00  0.00     0.051 A 
ATOM     22  C   UNL     1       7.680   2.981   4.037  1.00  0.00     0.041 A 
ATOM     23  C   UNL     1       9.416   1.695   5.071  1.00  0.00     0.028 A 
ATOM     24  C   UNL     1       8.706   2.882   4.929  1.00  0.00     0.023 A 
ATOM     25  O   UNL     1       9.055  -2.642   2.897  1.00  0.00    -0.267 OA
ATOM     26  H   UNL     1      10.421  -1.058   4.816  1.00  0.00     0.170 HD
ATOM     27  Cl  UNL     1       6.786   4.454   3.847  1.00  0.00    -0.084 Cl
ENDBRANCH  15  16
ENDBRANCH   4  15
TORSDOF 4
ENDMDL
MODEL 2
REMARK VINA RESULT:      -3.5      2.650      6.319
REMARK SMILES COc1ccccc1NC(=O)NN=C1C(=O)Nc2ccc(Cl)cc21
REMARK SMILES IDX 9 1 10 2 11 3 12 4 8 7 3 8 4 9 5 10 7 11 6 12 2 13 1 14
REMARK SMILES IDX 13 15 14 16 15 17 24 18 17 19 23 20 18 21 21 22 19 23 20 24
REMARK SMILES IDX 16 25 22 27
REMARK H PARENT 9 5 12 6 17 26
ROOT
ATOM      1  N   UNL     1       6.094   0.278   2.154  1.00  0.00    -0.303 N 
ATOM      2  C   UNL     1       5.987   1.423   1.338  1.00  0.00     0.339 C 
ATOM      3  O   UNL     1       6.958   2.135   1.050  1.00  0.00    -0.246 OA
ATOM      4  N   UNL     1       4.713   1.827   0.791  1.00  0.00    -0.228 N 
ATOM      5  H   UNL     1       5.172  -0.237   2.318  1.00  0.00     0.172 HD
ATOM      6  H   UNL     1       3.843   1.267   0.996  1.00  0.00     0.195 HD
ENDROOT
BRANCH   1   7
ATOM      7  C   UNL     1       7.252  -0.223   2.746  1.00  0.00     0.085 A 
ATOM      8  C   UNL     1       7.863   0.563   3.734  1.00  0.00     0.142 A 
ATOM      9  C   UNL     1       9.003   0.141   4.362  1.00  0.00     0.048 A 
ATOM     10  C   UNL     1       9.615  -1.060   4.073  1.00  0.00     0.004 A 
ATOM     11  C   UNL     1       7.869  -1.407   2.470  1.00  0.00     0.030 A 
ATOM     12  C   UNL     1       9.028  -1.842   3.106  1.00  0.00     0.002 A 
BRANCH   8  13
ATOM     13  O   UNL     1       7.331   1.795   4.106  1.00  0.00    -0.495 OA
ATOM     14  C   UNL     1       7.865   2.544   5.196  1.00  0.00     0.278 C 
ENDBRANCH   8  13
ENDBRANCH   1   7
BRANCH   4  15
ATOM     15  N   UNL     1       4.642   2.969  -0.015  1.00  0.00    -0.165 NA
BRANCH  15  16
ATOM     16  C   UNL     1       5.431   3.952   0.263  1.00  0.00     0.158 C 
ATOM     17  C   UNL     1       5.290   5.003   1.266  1.00  0.00     0.276 C 
ATOM     18  C   UNL     1       6.693   4.214  -0.419  1.00  0.00     0.033 A 
ATOM     19  N   UNL     1       6.432   5.846   1.170  1.00  0.00    -0.320 N 
ATOM     20  C   UNL     1       7.334   3.548  -1.450  1.00  0.00     0.033 A 
ATOM     21  C   UNL     1       7.270   5.339   0.133  1.00  0.00     0.051 A 
ATOM     22  C   UNL     1       8.554   4.034  -1.911  1.00  0.00     0.041 A 
ATOM     23  C   UNL     1       8.487   5.825  -0.323  1.00  0.00     0.028 A 
ATOM     24  C   UNL     1       9.117   5.146  -1.359  1.00  0.00     0.023 A 
ATOM     25  O   UNL     1       4.301   5.078   2.041  1.00  0.00    -0.267 OA
ATOM     26  H   UNL     1       6.616   6.700   1.772  1.00  0.00     0.170 HD
ATOM     27  Cl  UNL     1       9.328   3.175  -3.203  1.00  0.00    -0.084 Cl
ENDBRANCH  15  16
ENDBRANCH   4  15
TORSDOF 4
ENDMDL
MODEL 3
REMARK VINA RESULT:      -3.2      2.534      6.245
REMARK SMILES COc1ccccc1NC(=O)NN=C1C(=O)Nc2ccc(Cl)cc21
REMARK SMILES IDX 9 1 10 2 11 3 12 4 8 7 3 8 4 9 5 10 7 11 6 12 2 13 1 14
REMARK SMILES IDX 13 15 14 16 15 17 24 18 17 19 23 20 18 21 21 22 19 23 20 24
REMARK SMILES IDX 16 25 22 27
REMARK H PARENT 9 5 12 6 17 26
ROOT
ATOM      1  N   UNL     1       6.854  -0.875   1.546  1.00  0.00    -0.303 N 
ATOM      2  C   UNL     1       6.998   0.034   0.478  1.00  0.00     0.339 C 
ATOM      3  O   UNL     1       8.060   0.624   0.237  1.00  0.00    -0.246 OA
ATOM      4  N   UNL     1       5.891   0.325  -0.403  1.00  0.00    -0.228 N 
ATOM      5  H   UNL     1       5.880  -1.306   1.632  1.00  0.00     0.172 HD
ATOM      6  H   UNL     1       4.957  -0.141  -0.256  1.00  0.00     0.195 HD
ENDROOT
BRANCH   1   7
ATOM      7  C   UNL     1       7.832  -1.246   2.468  1.00  0.00     0.085 A 
ATOM      8  C   UNL     1       7.857  -0.560   3.691  1.00  0.00     0.142 A 
ATOM      9  C   UNL     1       8.786  -0.866   4.648  1.00  0.00     0.048 A 
ATOM     10  C   UNL     1       9.740  -1.847   4.479  1.00  0.00     0.004 A 
ATOM     11  C   UNL     1       8.780  -2.213   2.314  1.00  0.00     0.030 A 
ATOM     12  C   UNL     1       9.728  -2.529   3.284  1.00  0.00     0.002 A 
BRANCH   8  13
ATOM     13  O   UNL     1       6.941   0.450   3.971  1.00  0.00    -0.495 OA
ATOM     14  C   UNL     1       6.953   1.688   3.263  1.00  0.00     0.278 C 
ENDBRANCH   8  13
ENDBRANCH   1   7
BRANCH   4  15
ATOM     15  N   UNL     1       6.069   1.232  -1.453  1.00  0.00    -0.165 NA
BRANCH  15  16
ATOM     16  C   UNL     1       5.632   2.436  -1.289  1.00  0.00     0.158 C 
ATOM     17  C   UNL     1       4.351   3.021  -1.669  1.00  0.00     0.276 C 
ATOM     18  C   UNL     1       6.390   3.507  -0.652  1.00  0.00     0.033 A 
ATOM     19  N   UNL     1       4.364   4.386  -1.266  1.00  0.00    -0.320 N 
ATOM     20  C   UNL     1       7.660   3.529  -0.101  1.00  0.00     0.033 A 
ATOM     21  C   UNL     1       5.622   4.653  -0.648  1.00  0.00     0.051 A 
ATOM     22  C   UNL     1       8.136   4.717   0.449  1.00  0.00     0.041 A 
ATOM     23  C   UNL     1       6.093   5.838  -0.101  1.00  0.00     0.028 A 
ATOM     24  C   UNL     1       7.369   5.844   0.448  1.00  0.00     0.023 A 
ATOM     25  O   UNL     1       3.446   2.366  -2.248  1.00  0.00    -0.267 OA
ATOM     26  H   UNL     1       3.569   5.074  -1.406  1.00  0.00     0.170 HD
ATOM     27  Cl  UNL     1       9.730   4.708   1.131  1.00  0.00    -0.084 Cl
ENDBRANCH  15  16
ENDBRANCH   4  15
TORSDOF 4
ENDMDL
MODEL 4
REMARK VINA RESULT:      -3.0      2.582      6.786
REMARK SMILES COc1ccccc1NC(=O)NN=C1C(=O)Nc2ccc(Cl)cc21
REMARK SMILES IDX 9 1 10 2 11 3 12 4 8 7 3 8 4 9 5 10 7 11 6 12 2 13 1 14
REMARK SMILES IDX 13 15 14 16 15 17 24 18 17 19 23 20 18 21 21 22 19 23 20 24
REMARK SMILES IDX 16 25 22 27
REMARK H PARENT 9 5 12 6 17 26
ROOT
ATOM      1  N   UNL     1       6.269   0.476   2.102  1.00  0.00    -0.303 N 
ATOM      2  C   UNL     1       5.598   1.619   1.622  1.00  0.00     0.339 C 
ATOM      3  O   UNL     1       5.810   2.756   2.062  1.00  0.00    -0.246 OA
ATOM      4  N   UNL     1       4.610   1.513   0.574  1.00  0.00    -0.228 N 
ATOM      5  H   UNL     1       5.982  -0.438   1.628  1.00  0.00     0.172 HD
ATOM      6  H   UNL     1       4.378   0.574   0.152  1.00  0.00     0.195 HD
ENDROOT
BRANCH   1   7
ATOM      7  C   UNL     1       7.238   0.433   3.103  1.00  0.00     0.085 A 
ATOM      8  C   UNL     1       8.309  -0.457   2.925  1.00  0.00     0.142 A 
ATOM      9  C   UNL     1       9.300  -0.558   3.862  1.00  0.00     0.048 A 
ATOM     10  C   UNL     1       9.315   0.191   5.020  1.00  0.00     0.004 A 
ATOM     11  C   UNL     1       7.266   1.166   4.251  1.00  0.00     0.030 A 
ATOM     12  C   UNL     1       8.272   1.068   5.209  1.00  0.00     0.002 A 
BRANCH   8  13
ATOM     13  O   UNL     1       8.396  -1.263   1.793  1.00  0.00    -0.495 OA
ATOM     14  C   UNL     1       9.608  -1.388   1.054  1.00  0.00     0.278 C 
ENDBRANCH   8  13
ENDBRANCH   1   7
BRANCH   4  15
ATOM     15  N   UNL     1       3.962   2.668   0.121  1.00  0.00    -0.165 NA
BRANCH  15  16
ATOM     16  C   UNL     1       4.696   3.649  -0.286  1.00  0.00     0.158 C 
ATOM     17  C   UNL     1       4.420   5.082  -0.280  1.00  0.00     0.276 C 
ATOM     18  C   UNL     1       6.025   3.498  -0.867  1.00  0.00     0.033 A 
ATOM     19  N   UNL     1       5.551   5.741  -0.838  1.00  0.00    -0.320 N 
ATOM     20  C   UNL     1       6.793   2.374  -1.120  1.00  0.00     0.033 A 
ATOM     21  C   UNL     1       6.514   4.747  -1.187  1.00  0.00     0.051 A 
ATOM     22  C   UNL     1       8.050   2.531  -1.695  1.00  0.00     0.041 A 
ATOM     23  C   UNL     1       7.767   4.909  -1.760  1.00  0.00     0.028 A 
ATOM     24  C   UNL     1       8.526   3.771  -2.007  1.00  0.00     0.023 A 
ATOM     25  O   UNL     1       3.346   5.569   0.161  1.00  0.00    -0.267 OA
ATOM     26  H   UNL     1       5.648   6.789  -0.966  1.00  0.00     0.170 HD
ATOM     27  Cl  UNL     1       8.985   1.102  -1.996  1.00  0.00    -0.084 Cl
ENDBRANCH  15  16
ENDBRANCH   4  15
TORSDOF 4
ENDMDL
MODEL 5
REMARK VINA RESULT:      -2.9      2.847      6.171
REMARK SMILES COc1ccccc1NC(=O)NN=C1C(=O)Nc2ccc(Cl)cc21
REMARK SMILES IDX 9 1 10 2 11 3 12 4 8 7 3 8 4 9 5 10 7 11 6 12 2 13 1 14
REMARK SMILES IDX 13 15 14 16 15 17 24 18 17 19 23 20 18 21 21 22 19 23 20 24
REMARK SMILES IDX 16 25 22 27
REMARK H PARENT 9 5 12 6 17 26
ROOT
ATOM      1  N   UNL     1       6.562  -0.067   0.916  1.00  0.00    -0.303 N 
ATOM      2  C   UNL     1       5.831   1.134   1.015  1.00  0.00     0.339 C 
ATOM      3  O   UNL     1       6.026   1.966   1.911  1.00  0.00    -0.246 OA
ATOM      4  N   UNL     1       4.799   1.455   0.057  1.00  0.00    -0.228 N 
ATOM      5  H   UNL     1       6.283  -0.689   0.092  1.00  0.00     0.172 HD
ATOM      6  H   UNL     1       4.579   0.792  -0.733  1.00  0.00     0.195 HD
ENDROOT
BRANCH   1   7
ATOM      7  C   UNL     1       7.578  -0.502   1.765  1.00  0.00     0.085 A 
ATOM      8  C   UNL     1       8.617   0.399   2.041  1.00  0.00     0.142 A 
ATOM      9  C   UNL     1       9.651   0.048   2.866  1.00  0.00     0.048 A 
ATOM     10  C   UNL     1       9.740  -1.189   3.469  1.00  0.00     0.004 A 
ATOM     11  C   UNL     1       7.679  -1.721   2.368  1.00  0.00     0.030 A 
ATOM     12  C   UNL     1       8.728  -2.084   3.208  1.00  0.00     0.002 A 
BRANCH   8  13
ATOM     13  O   UNL     1       8.630   1.676   1.486  1.00  0.00    -0.495 OA
ATOM     14  C   UNL     1       9.738   2.151   0.726  1.00  0.00     0.278 C 
ENDBRANCH   8  13
ENDBRANCH   1   7
BRANCH   4  15
ATOM     15  N   UNL     1       4.092   2.656   0.185  1.00  0.00    -0.165 NA
BRANCH  15  16
ATOM     16  C   UNL     1       4.774   3.747   0.299  1.00  0.00     0.158 C 
ATOM     17  C   UNL     1       4.529   4.914   1.139  1.00  0.00     0.276 C 
ATOM     18  C   UNL     1       5.998   4.033  -0.440  1.00  0.00     0.033 A 
ATOM     19  N   UNL     1       5.575   5.847   0.897  1.00  0.00    -0.320 N 
ATOM     20  C   UNL     1       6.700   3.292  -1.376  1.00  0.00     0.033 A 
ATOM     21  C   UNL     1       6.456   5.281  -0.072  1.00  0.00     0.051 A 
ATOM     22  C   UNL     1       7.860   3.828  -1.928  1.00  0.00     0.041 A 
ATOM     23  C   UNL     1       7.612   5.818  -0.620  1.00  0.00     0.028 A 
ATOM     24  C   UNL     1       8.305   5.062  -1.558  1.00  0.00     0.023 A 
ATOM     25  O   UNL     1       3.542   5.001   1.916  1.00  0.00    -0.267 OA
ATOM     26  H   UNL     1       5.671   6.796   1.363  1.00  0.00     0.170 HD
ATOM     27  Cl  UNL     1       8.713   2.871  -3.096  1.00  0.00    -0.084 Cl
ENDBRANCH  15  16
ENDBRANCH   4  15
TORSDOF 4
ENDMDL
MODEL 6
REMARK VINA RESULT:      -2.8      2.826      6.340
REMARK SMILES COc1ccccc1NC(=O)NN=C1C(=O)Nc2ccc(Cl)cc21
REMARK SMILES IDX 9 1 10 2 11 3 12 4 8 7 3 8 4 9 5 10 7 11 6 12 2 13 1 14
REMARK SMILES IDX 13 15 14 16 15 17 24 18 17 19 23 20 18 21 21 22 19 23 20 24
REMARK SMILES IDX 16 25 22 27
REMARK H PARENT 9 5 12 6 17 26
ROOT
ATOM      1  N   UNL     1       6.452  -0.437   1.047  1.00  0.00    -0.303 N 
ATOM      2  C   UNL     1       6.361   0.763   0.311  1.00  0.00     0.339 C 
ATOM      3  O   UNL     1       7.306   1.554   0.198  1.00  0.00    -0.246 OA
ATOM      4  N   UNL     1       5.134   1.130  -0.358  1.00  0.00    -0.228 N 
ATOM      5  H   UNL     1       5.556  -1.020   1.058  1.00  0.00     0.172 HD
ATOM      6  H   UNL     1       4.288   0.503  -0.303  1.00  0.00     0.195 HD
ENDROOT
BRANCH   1   7
ATOM      7  C   UNL     1       7.565  -0.912   1.738  1.00  0.00     0.085 A 
ATOM      8  C   UNL     1       7.581  -0.742   3.130  1.00  0.00     0.142 A 
ATOM      9  C   UNL     1       8.637  -1.181   3.880  1.00  0.00     0.048 A 
ATOM     10  C   UNL     1       9.736  -1.808   3.330  1.00  0.00     0.004 A 
ATOM     11  C   UNL     1       8.657  -1.533   1.208  1.00  0.00     0.030 A 
ATOM     12  C   UNL     1       9.736  -1.982   1.965  1.00  0.00     0.002 A 
BRANCH   8  13
ATOM     13  O   UNL     1       6.524  -0.121   3.792  1.00  0.00    -0.495 OA
ATOM     14  C   UNL     1       6.431  -0.117   5.215  1.00  0.00     0.278 C 
ENDBRANCH   8  13
ENDBRANCH   1   7
BRANCH   4  15
ATOM     15  N   UNL     1       5.077   2.327  -1.080  1.00  0.00    -0.165 NA
BRANCH  15  16
ATOM     16  C   UNL     1       5.653   3.365  -0.570  1.00  0.00     0.158 C 
ATOM     17  C   UNL     1       5.282   4.155   0.599  1.00  0.00     0.276 C 
ATOM     18  C   UNL     1       6.861   3.983  -1.106  1.00  0.00     0.033 A 
ATOM     19  N   UNL     1       6.243   5.196   0.738  1.00  0.00    -0.320 N 
ATOM     20  C   UNL     1       7.648   3.661  -2.199  1.00  0.00     0.033 A 
ATOM     21  C   UNL     1       7.193   5.064  -0.317  1.00  0.00     0.051 A 
ATOM     22  C   UNL     1       8.765   4.444  -2.479  1.00  0.00     0.041 A 
ATOM     23  C   UNL     1       8.306   5.846  -0.593  1.00  0.00     0.028 A 
ATOM     24  C   UNL     1       9.086   5.510  -1.693  1.00  0.00     0.023 A 
ATOM     25  O   UNL     1       4.275   3.894   1.308  1.00  0.00    -0.267 OA
ATOM     26  H   UNL     1       6.240   5.934   1.500  1.00  0.00     0.170 HD
ATOM     27  Cl  UNL     1       9.728   4.012  -3.855  1.00  0.00    -0.084 Cl
ENDBRANCH  15  16
ENDBRANCH   4  15
TORSDOF 4
ENDMDL
MODEL 7
REMARK VINA RESULT:      -2.7      0.957      1.058
REMARK SMILES COc1ccccc1NC(=O)NN=C1C(=O)Nc2ccc(Cl)cc21
REMARK SMILES IDX 9 1 10 2 11 3 12 4 8 7 3 8 4 9 5 10 7 11 6 12 2 13 1 14
REMARK SMILES IDX 13 15 14 16 15 17 24 18 17 19 23 20 18 21 21 22 19 23 20 24
REMARK SMILES IDX 16 25 22 27
REMARK H PARENT 9 5 12 6 17 26
ROOT
ATOM      1  N   UNL     1       6.843   2.685  -1.232  1.00  0.00    -0.303 N 
ATOM      2  C   UNL     1       7.025   1.551  -0.413  1.00  0.00     0.339 C 
ATOM      3  O   UNL     1       8.130   1.019  -0.241  1.00  0.00    -0.246 OA
ATOM      4  N   UNL     1       5.909   0.948   0.276  1.00  0.00    -0.228 N 
ATOM      5  H   UNL     1       5.834   3.034  -1.287  1.00  0.00     0.172 HD
ATOM      6  H   UNL     1       4.939   1.349   0.175  1.00  0.00     0.195 HD
ENDROOT
BRANCH   1   7
ATOM      7  C   UNL     1       7.824   3.365  -1.952  1.00  0.00     0.085 A 
ATOM      8  C   UNL     1       7.846   4.763  -1.849  1.00  0.00     0.142 A 
ATOM      9  C   UNL     1       8.778   5.503  -2.524  1.00  0.00     0.048 A 
ATOM     10  C   UNL     1       9.739   4.936  -3.334  1.00  0.00     0.004 A 
ATOM     11  C   UNL     1       8.780   2.818  -2.756  1.00  0.00     0.030 A 
ATOM     12  C   UNL     1       9.731   3.564  -3.445  1.00  0.00     0.002 A 
BRANCH   8  13
ATOM     13  O   UNL     1       6.922   5.442  -1.059  1.00  0.00    -0.495 OA
ATOM     14  C   UNL     1       6.461   4.910   0.180  1.00  0.00     0.278 C 
ENDBRANCH   8  13
ENDBRANCH   1   7
BRANCH   4  15
ATOM     15  N   UNL     1       6.125  -0.177   1.081  1.00  0.00    -0.165 NA
BRANCH  15  16
ATOM     16  C   UNL     1       7.017  -0.089   2.010  1.00  0.00     0.158 C 
ATOM     17  C   UNL     1       7.973  -1.086   2.480  1.00  0.00     0.276 C 
ATOM     18  C   UNL     1       7.250   1.104   2.818  1.00  0.00     0.033 A 
ATOM     19  N   UNL     1       8.736  -0.493   3.525  1.00  0.00    -0.320 N 
ATOM     20  C   UNL     1       6.642   2.347   2.814  1.00  0.00     0.033 A 
ATOM     21  C   UNL     1       8.271   0.843   3.708  1.00  0.00     0.051 A 
ATOM     22  C   UNL     1       7.078   3.314   3.716  1.00  0.00     0.041 A 
ATOM     23  C   UNL     1       8.709   1.804   4.608  1.00  0.00     0.028 A 
ATOM     24  C   UNL     1       8.088   3.048   4.591  1.00  0.00     0.023 A 
ATOM     25  O   UNL     1       8.046  -2.244   1.993  1.00  0.00    -0.267 OA
ATOM     26  H   UNL     1       9.512  -0.974   4.065  1.00  0.00     0.170 HD
ATOM     27  Cl  UNL     1       6.294   4.861   3.682  1.00  0.00    -0.084 Cl
ENDBRANCH  15  16
ENDBRANCH   4  15
TORSDOF 4
ENDMDL
MODEL 8
REMARK VINA RESULT:      -2.0      3.508      5.843
REMARK SMILES COc1ccccc1NC(=O)NN=C1C(=O)Nc2ccc(Cl)cc21
REMARK SMILES IDX 9 1 10 2 11 3 12 4 8 7 3 8 4 9 5 10 7 11 6 12 2 13 1 14
REMARK SMILES IDX 13 15 14 16 15 17 24 18 17 19 23 20 18 21 21 22 19 23 20 24
REMARK SMILES IDX 16 25 22 27
REMARK H PARENT 9 5 12 6 17 26
ROOT
ATOM      1  N   UNL     1       5.875   4.455   2.061  1.00  0.00    -0.303 N 
ATOM      2  C   UNL     1       6.636   3.280   2.229  1.00  0.00     0.339 C 
ATOM      3  O   UNL     1       6.446   2.486   3.160  1.00  0.00    -0.246 OA
ATOM      4  N   UNL     1       7.692   2.942   1.304  1.00  0.00    -0.228 N 
ATOM      5  H   UNL     1       6.152   5.044   1.213  1.00  0.00     0.172 HD
ATOM      6  H   UNL     1       7.909   3.573   0.488  1.00  0.00     0.195 HD
ENDROOT
BRANCH   1   7
ATOM      7  C   UNL     1       4.834   4.902   2.872  1.00  0.00     0.085 A 
ATOM      8  C   UNL     1       3.647   5.299   2.237  1.00  0.00     0.142 A 
ATOM      9  C   UNL     1       2.579   5.749   2.963  1.00  0.00     0.048 A 
ATOM     10  C   UNL     1       2.595   5.842   4.339  1.00  0.00     0.004 A 
ATOM     11  C   UNL     1       4.835   5.000   4.232  1.00  0.00     0.030 A 
ATOM     12  C   UNL     1       3.752   5.457   4.977  1.00  0.00     0.002 A 
BRANCH   8  13
ATOM     13  O   UNL     1       3.519   5.247   0.851  1.00  0.00    -0.495 OA
ATOM     14  C   UNL     1       4.576   4.775   0.019  1.00  0.00     0.278 C 
ENDBRANCH   8  13
ENDBRANCH   1   7
BRANCH   4  15
ATOM     15  N   UNL     1       8.428   1.767   1.501  1.00  0.00    -0.165 NA
BRANCH  15  16
ATOM     16  C   UNL     1       7.797   0.643   1.427  1.00  0.00     0.158 C 
ATOM     17  C   UNL     1       8.117  -0.645   2.033  1.00  0.00     0.276 C 
ATOM     18  C   UNL     1       6.565   0.438   0.673  1.00  0.00     0.033 A 
ATOM     19  N   UNL     1       7.105  -1.567   1.645  1.00  0.00    -0.320 N 
ATOM     20  C   UNL     1       5.805   1.303  -0.096  1.00  0.00     0.033 A 
ATOM     21  C   UNL     1       6.172  -0.877   0.815  1.00  0.00     0.051 A 
ATOM     22  C   UNL     1       4.654   0.823  -0.713  1.00  0.00     0.041 A 
ATOM     23  C   UNL     1       5.024  -1.359   0.202  1.00  0.00     0.028 A 
ATOM     24  C   UNL     1       4.273  -0.478  -0.567  1.00  0.00     0.023 A 
ATOM     25  O   UNL     1       9.129  -0.825   2.760  1.00  0.00    -0.267 OA
ATOM     26  H   UNL     1       7.064  -2.588   1.930  1.00  0.00     0.170 HD
ATOM     27  Cl  UNL     1       3.726   1.935  -1.667  1.00  0.00    -0.084 Cl
ENDBRANCH  15  16
ENDBRANCH   4  15
TORSDOF 4
ENDMDL
MODEL 9
REMARK VINA RESULT:      -1.9      2.994      6.771
REMARK SMILES COc1ccccc1NC(=O)NN=C1C(=O)Nc2ccc(Cl)cc21
REMARK SMILES IDX 9 1 10 2 11 3 12 4 8 7 3 8 4 9 5 10 7 11 6 12 2 13 1 14
REMARK SMILES IDX 13 15 14 16 15 17 24 18 17 19 23 20 18 21 21 22 19 23 20 24
REMARK SMILES IDX 16 25 22 27
REMARK H PARENT 9 5 12 6 17 26
ROOT
ATOM      1  N   UNL     1       6.532   0.137   0.667  1.00  0.00    -0.303 N 
ATOM      2  C   UNL     1       6.139   1.444   0.315  1.00  0.00     0.339 C 
ATOM      3  O   UNL     1       6.403   2.435   1.009  1.00  0.00    -0.246 OA
ATOM      4  N   UNL     1       5.394   1.693  -0.898  1.00  0.00    -0.228 N 
ATOM      5  H   UNL     1       6.233  -0.618  -0.028  1.00  0.00     0.172 HD
ATOM      6  H   UNL     1       5.135   0.895  -1.537  1.00  0.00     0.195 HD
ENDROOT
BRANCH   1   7
ATOM      7  C   UNL     1       7.248  -0.245   1.801  1.00  0.00     0.085 A 
ATOM      8  C   UNL     1       6.511  -0.576   2.948  1.00  0.00     0.142 A 
ATOM      9  C   UNL     1       7.140  -0.960   4.100  1.00  0.00     0.048 A 
ATOM     10  C   UNL     1       8.512  -1.047   4.210  1.00  0.00     0.004 A 
ATOM     11  C   UNL     1       8.603  -0.335   1.924  1.00  0.00     0.030 A 
ATOM     12  C   UNL     1       9.249  -0.726   3.093  1.00  0.00     0.002 A 
BRANCH   8  13
ATOM     13  O   UNL     1       5.120  -0.523   2.950  1.00  0.00    -0.495 OA
ATOM     14  C   UNL     1       4.378  -0.258   1.762  1.00  0.00     0.278 C 
ENDBRANCH   8  13
ENDBRANCH   1   7
BRANCH   4  15
ATOM     15  N   UNL     1       5.020   3.003  -1.218  1.00  0.00    -0.165 NA
BRANCH  15  16
ATOM     16  C   UNL     1       5.928   3.919  -1.160  1.00  0.00     0.158 C 
ATOM     17  C   UNL     1       5.925   5.187  -0.437  1.00  0.00     0.276 C 
ATOM     18  C   UNL     1       7.210   3.854  -1.852  1.00  0.00     0.033 A 
ATOM     19  N   UNL     1       7.164   5.836  -0.700  1.00  0.00    -0.320 N 
ATOM     20  C   UNL     1       7.757   2.889  -2.681  1.00  0.00     0.033 A 
ATOM     21  C   UNL     1       7.926   4.998  -1.567  1.00  0.00     0.051 A 
ATOM     22  C   UNL     1       9.026   3.097  -3.212  1.00  0.00     0.041 A 
ATOM     23  C   UNL     1       9.192   5.208  -2.094  1.00  0.00     0.028 A 
ATOM     24  C   UNL     1       9.727   4.231  -2.924  1.00  0.00     0.023 A 
ATOM     25  O   UNL     1       4.957   5.565   0.273  1.00  0.00    -0.267 OA
ATOM     26  H   UNL     1       7.456   6.779  -0.312  1.00  0.00     0.170 HD
ATOM     27  Cl  UNL     1       9.680   1.867  -4.245  1.00  0.00    -0.084 Cl
ENDBRANCH  15  16
ENDBRANCH   4  15
TORSDOF 4
ENDMDL
