MODEL 1
REMARK VINA RESULT:      -5.1      0.000      0.000
REMARK SMILES Cc1ccc(CCN=c2cc(CC#N)c(C#N)c3[nH]c4ccccc4n23)cc1
REMARK SMILES IDX 8 1 7 2 6 3 5 4 2 5 3 6 28 7 4 8 27 9 1 10 9 11 10 12 26 13
REMARK SMILES IDX 11 14 25 15 18 16 15 17 24 18 20 19 19 20 23 21 21 22 22 23
REMARK SMILES IDX 12 25 13 26 14 27 16 28 17 29
REMARK H PARENT 19 24
ROOT
ATOM      1  N   UNL     1       7.991   4.360   1.087  1.00  0.00    -0.268 NA
ENDROOT
BRANCH   1   2
ATOM      2  C   UNL     1       6.716   4.981   1.191  1.00  0.00     0.149 C 
BRANCH   2   3
ATOM      3  C   UNL     1       5.827   4.866  -0.011  1.00  0.00     0.059 C 
BRANCH   3   4
ATOM      4  C   UNL     1       5.213   3.517  -0.135  1.00  0.00    -0.046 A 
ATOM      5  C   UNL     1       4.075   0.995  -0.223  1.00  0.00    -0.051 A 
ATOM      6  C   UNL     1       4.298   1.678  -1.413  1.00  0.00     0.004 A 
ATOM      7  C   UNL     1       4.404   1.540   0.995  1.00  0.00     0.004 A 
ATOM      8  C   UNL     1       4.874   2.951  -1.347  1.00  0.00     0.004 A 
ATOM      9  C   UNL     1       4.976   2.806   1.047  1.00  0.00     0.004 A 
ATOM     10  C   UNL     1       3.458  -0.362  -0.330  1.00  0.00     0.044 C 
ENDBRANCH   3   4
ENDBRANCH   2   3
ENDBRANCH   1   2
BRANCH   1  11
ATOM     11  C   UNL     1       8.305   3.152   1.328  1.00  0.00     0.134 A 
ATOM     12  C   UNL     1       8.212   2.540   2.562  1.00  0.00     0.053 A 
ATOM     13  N   UNL     1       8.766   2.421   0.272  1.00  0.00    -0.278 N 
ATOM     14  C   UNL     1       8.572   1.220   2.748  1.00  0.00    -0.009 A 
ATOM     15  C   UNL     1       8.963   2.743  -1.031  1.00  0.00     0.073 A 
ATOM     16  C   UNL     1       9.123   1.137   0.428  1.00  0.00     0.135 A 
ATOM     17  C   UNL     1       9.043   0.487   1.654  1.00  0.00     0.098 A 
ATOM     18  C   UNL     1       8.765   3.926  -1.749  1.00  0.00     0.029 A 
ATOM     19  C   UNL     1       9.451   1.636  -1.696  1.00  0.00     0.064 A 
ATOM     20  N   UNL     1       9.543   0.651  -0.778  1.00  0.00    -0.338 N 
ATOM     21  C   UNL     1       9.046   4.009  -3.098  1.00  0.00     0.002 A 
ATOM     22  C   UNL     1       9.734   1.717  -3.055  1.00  0.00     0.028 A 
ATOM     23  C   UNL     1       9.533   2.903  -3.765  1.00  0.00     0.002 A 
ATOM     24  H   UNL     1       9.879  -0.318  -0.955  1.00  0.00     0.168 HD
BRANCH  14  25
ATOM     25  C   UNL     1       8.488   0.526   4.053  1.00  0.00     0.157 C 
BRANCH  25  26
ATOM     26  C   UNL     1       7.171  -0.137   4.126  1.00  0.00     0.067 C 
ATOM     27  N   UNL     1       6.135  -0.665   4.171  1.00  0.00    -0.198 NA
ENDBRANCH  25  26
ENDBRANCH  14  25
BRANCH  17  28
ATOM     28  C   UNL     1       9.418  -0.878   1.838  1.00  0.00     0.103 C 
ATOM     29  N   UNL     1       9.718  -1.986   1.978  1.00  0.00    -0.192 NA
ENDBRANCH  17  28
ENDBRANCH   1  11
TORSDOF 7
ENDMDL
MODEL 2
REMARK VINA RESULT:      -3.4      1.867      4.624
REMARK SMILES Cc1ccc(CCN=c2cc(CC#N)c(C#N)c3[nH]c4ccccc4n23)cc1
REMARK SMILES IDX 8 1 7 2 6 3 5 4 2 5 3 6 28 7 4 8 27 9 1 10 9 11 10 12 26 13
REMARK SMILES IDX 11 14 25 15 18 16 15 17 24 18 20 19 19 20 23 21 21 22 22 23
REMARK SMILES IDX 12 25 13 26 14 27 16 28 17 29
REMARK H PARENT 19 24
ROOT
ATOM      1  N   UNL     1       4.350   0.559   1.246  1.00  0.00    -0.268 NA
ENDROOT
BRANCH   1   2
ATOM      2  C   UNL     1       4.260   0.131  -0.107  1.00  0.00     0.149 C 
BRANCH   2   3
ATOM      3  C   UNL     1       4.347   1.208  -1.147  1.00  0.00     0.059 C 
BRANCH   3   4
ATOM      4  C   UNL     1       5.720   1.763  -1.275  1.00  0.00    -0.046 A 
ATOM      5  C   UNL     1       8.329   2.667  -1.481  1.00  0.00    -0.051 A 
ATOM      6  C   UNL     1       7.285   3.553  -1.719  1.00  0.00     0.004 A 
ATOM      7  C   UNL     1       8.098   1.354  -1.146  1.00  0.00     0.004 A 
ATOM      8  C   UNL     1       5.975   3.077  -1.611  1.00  0.00     0.004 A 
ATOM      9  C   UNL     1       6.791   0.893  -1.041  1.00  0.00     0.004 A 
ATOM     10  C   UNL     1       9.716   3.209  -1.606  1.00  0.00     0.044 C 
ENDBRANCH   3   4
ENDBRANCH   2   3
ENDBRANCH   1   2
BRANCH   1  11
ATOM     11  C   UNL     1       5.390   0.699   1.964  1.00  0.00     0.134 A 
ATOM     12  C   UNL     1       6.125  -0.338   2.503  1.00  0.00     0.053 A 
ATOM     13  N   UNL     1       5.793   1.979   2.209  1.00  0.00    -0.278 N 
ATOM     14  C   UNL     1       7.247  -0.109   3.275  1.00  0.00    -0.009 A 
ATOM     15  C   UNL     1       5.283   3.175   1.822  1.00  0.00     0.073 A 
ATOM     16  C   UNL     1       6.879   2.227   2.957  1.00  0.00     0.135 A 
ATOM     17  C   UNL     1       7.644   1.210   3.516  1.00  0.00     0.098 A 
ATOM     18  C   UNL     1       4.175   3.520   1.043  1.00  0.00     0.029 A 
ATOM     19  C   UNL     1       6.069   4.185   2.341  1.00  0.00     0.064 A 
ATOM     20  N   UNL     1       7.053   3.579   3.040  1.00  0.00    -0.338 N 
ATOM     21  C   UNL     1       3.853   4.837   0.785  1.00  0.00     0.002 A 
ATOM     22  C   UNL     1       5.748   5.512   2.082  1.00  0.00     0.028 A 
ATOM     23  C   UNL     1       4.638   5.847   1.302  1.00  0.00     0.002 A 
ATOM     24  H   UNL     1       7.817   4.059   3.558  1.00  0.00     0.168 HD
BRANCH  14  25
ATOM     25  C   UNL     1       8.063  -1.191   3.872  1.00  0.00     0.157 C 
BRANCH  25  26
ATOM     26  C   UNL     1       8.986  -1.684   2.830  1.00  0.00     0.067 C 
ATOM     27  N   UNL     1       9.702  -2.082   2.004  1.00  0.00    -0.198 NA
ENDBRANCH  25  26
ENDBRANCH  14  25
BRANCH  17  28
ATOM     28  C   UNL     1       8.802   1.455   4.313  1.00  0.00     0.103 C 
ATOM     29  N   UNL     1       9.738   1.649   4.966  1.00  0.00    -0.192 NA
ENDBRANCH  17  28
ENDBRANCH   1  11
TORSDOF 7
ENDMDL
MODEL 3
REMARK VINA RESULT:      -3.2      1.989      4.982
REMARK SMILES Cc1ccc(CCN=c2cc(CC#N)c(C#N)c3[nH]c4ccccc4n23)cc1
REMARK SMILES IDX 8 1 7 2 6 3 5 4 2 5 3 6 28 7 4 8 27 9 1 10 9 11 10 12 26 13
REMARK SMILES IDX 11 14 25 15 18 16 15 17 24 18 20 19 19 20 23 21 21 22 22 23
REMARK SMILES IDX 12 25 13 26 14 27 16 28 17 29
REMARK H PARENT 19 24
ROOT
ATOM      1  N   UNL     1       6.122   0.740   0.375  1.00  0.00    -0.268 NA
ENDROOT
BRANCH   1   2
ATOM      2  C   UNL     1       6.951  -0.131  -0.383  1.00  0.00     0.149 C 
BRANCH   2   3
ATOM      3  C   UNL     1       8.425   0.134  -0.311  1.00  0.00     0.059 C 
BRANCH   3   4
ATOM      4  C   UNL     1       8.752   1.573  -0.499  1.00  0.00    -0.046 A 
ATOM      5  C   UNL     1       9.306   4.242  -0.981  1.00  0.00    -0.051 A 
ATOM      6  C   UNL     1       9.632   3.696   0.255  1.00  0.00     0.004 A 
ATOM      7  C   UNL     1       8.715   3.490  -1.969  1.00  0.00     0.004 A 
ATOM      8  C   UNL     1       9.344   2.346   0.479  1.00  0.00     0.004 A 
ATOM      9  C   UNL     1       8.435   2.150  -1.734  1.00  0.00     0.004 A 
ATOM     10  C   UNL     1       9.627   5.687  -1.186  1.00  0.00     0.044 C 
ENDBRANCH   3   4
ENDBRANCH   2   3
ENDBRANCH   1   2
BRANCH   1  11
ATOM     11  C   UNL     1       6.447   1.506   1.335  1.00  0.00     0.134 A 
ATOM     12  C   UNL     1       7.095   1.103   2.486  1.00  0.00     0.053 A 
ATOM     13  N   UNL     1       6.124   2.825   1.199  1.00  0.00    -0.278 N 
ATOM     14  C   UNL     1       7.417   1.995   3.490  1.00  0.00    -0.009 A 
ATOM     15  C   UNL     1       5.499   3.501   0.203  1.00  0.00     0.073 A 
ATOM     16  C   UNL     1       6.426   3.710   2.160  1.00  0.00     0.135 A 
ATOM     17  C   UNL     1       7.077   3.342   3.332  1.00  0.00     0.098 A 
ATOM     18  C   UNL     1       4.971   3.095  -1.026  1.00  0.00     0.029 A 
ATOM     19  C   UNL     1       5.414   4.834   0.553  1.00  0.00     0.064 A 
ATOM     20  N   UNL     1       5.992   4.945   1.768  1.00  0.00    -0.338 N 
ATOM     21  C   UNL     1       4.369   3.991  -1.887  1.00  0.00     0.002 A 
ATOM     22  C   UNL     1       4.809   5.739  -0.312  1.00  0.00     0.028 A 
ATOM     23  C   UNL     1       4.284   5.323  -1.538  1.00  0.00     0.002 A 
ATOM     24  H   UNL     1       6.094   5.823   2.318  1.00  0.00     0.168 HD
BRANCH  14  25
ATOM     25  C   UNL     1       8.111   1.605   4.739  1.00  0.00     0.157 C 
BRANCH  25  26
ATOM     26  C   UNL     1       9.015   0.483   4.419  1.00  0.00     0.067 C 
ATOM     27  N   UNL     1       9.737  -0.393   4.162  1.00  0.00    -0.198 NA
ENDBRANCH  25  26
ENDBRANCH  14  25
BRANCH  17  28
ATOM     28  C   UNL     1       7.407   4.271   4.364  1.00  0.00     0.103 C 
ATOM     29  N   UNL     1       7.680   5.028   5.195  1.00  0.00    -0.192 NA
ENDBRANCH  17  28
ENDBRANCH   1  11
TORSDOF 7
ENDMDL
