MODEL 1
REMARK VINA RESULT:      -5.4      0.000      0.000
REMARK SMILES CN1CCOC2CN(C(=O)Cc3ccccc3)CC21
REMARK SMILES IDX 9 1 10 2 8 3 2 4 3 5 19 6 4 7 18 8 6 9 5 10 7 11 1 12 11 13
REMARK SMILES IDX 12 14 13 15 17 16 14 17 16 18 15 19
REMARK H PARENT
ROOT
ATOM      1  C   UNL     1       5.468   0.285  -0.154  1.00  0.00     0.227 C 
ATOM      2  O   UNL     1       5.977  -0.362  -1.107  1.00  0.00    -0.275 OA
ENDROOT
BRANCH   1   3
ATOM      3  N   UNL     1       6.154   0.319   1.087  1.00  0.00    -0.338 N 
ATOM      4  N   UNL     1       8.796   0.828   3.434  1.00  0.00    -0.297 NA
ATOM      5  C   UNL     1       8.941  -0.204   4.407  1.00  0.00     0.113 C 
ATOM      6  C   UNL     1       7.461   0.944   2.897  1.00  0.00     0.106 C 
ATOM      7  C   UNL     1       7.715  -0.514   5.215  1.00  0.00     0.176 C 
ATOM      8  C   UNL     1       7.415   0.960   1.403  1.00  0.00     0.141 C 
ATOM      9  C   UNL     1       6.812  -0.405   3.165  1.00  0.00     0.156 C 
ATOM     10  O   UNL     1       6.522  -0.430   4.518  1.00  0.00    -0.373 OA
ATOM     11  C   UNL     1       5.619  -0.345   2.280  1.00  0.00     0.153 C 
ATOM     12  C   UNL     1       9.262   2.121   3.887  1.00  0.00     0.105 C 
ENDBRANCH   1   3
BRANCH   1  13
ATOM     13  C   UNL     1       4.183   1.020  -0.258  1.00  0.00     0.135 C 
BRANCH  13  14
ATOM     14  C   UNL     1       4.383   2.488  -0.240  1.00  0.00    -0.039 A 
ATOM     15  C   UNL     1       4.560   3.162  -1.454  1.00  0.00     0.004 A 
ATOM     16  C   UNL     1       4.403   3.223   0.926  1.00  0.00     0.004 A 
ATOM     17  C   UNL     1       4.748   4.527  -1.469  1.00  0.00     0.000 A 
ATOM     18  C   UNL     1       4.591   4.582   0.891  1.00  0.00     0.000 A 
ATOM     19  C   UNL     1       4.768   5.269  -0.298  1.00  0.00     0.000 A 
ENDBRANCH  13  14
ENDBRANCH   1  13
TORSDOF 3
ENDMDL
MODEL 2
REMARK VINA RESULT:      -5.2      1.283      1.937
REMARK SMILES CN1CCOC2CN(C(=O)Cc3ccccc3)CC21
REMARK SMILES IDX 9 1 10 2 8 3 2 4 3 5 19 6 4 7 18 8 6 9 5 10 7 11 1 12 11 13
REMARK SMILES IDX 12 14 13 15 17 16 14 17 16 18 15 19
REMARK H PARENT
ROOT
ATOM      1  C   UNL     1       4.971  -0.646   0.059  1.00  0.00     0.227 C 
ATOM      2  O   UNL     1       5.166  -1.719  -0.570  1.00  0.00    -0.275 OA
ENDROOT
BRANCH   1   3
ATOM      3  N   UNL     1       5.939  -0.230   1.010  1.00  0.00    -0.338 N 
ATOM      4  N   UNL     1       7.365   0.652   4.162  1.00  0.00    -0.297 NA
ATOM      5  C   UNL     1       8.213   1.798   4.136  1.00  0.00     0.113 C 
ATOM      6  C   UNL     1       7.272  -0.037   2.896  1.00  0.00     0.106 C 
ATOM      7  C   UNL     1       9.352   1.744   3.160  1.00  0.00     0.176 C 
ATOM      8  C   UNL     1       5.868  -0.295   2.456  1.00  0.00     0.141 C 
ATOM      9  C   UNL     1       7.688   0.994   1.857  1.00  0.00     0.156 C 
ATOM     10  O   UNL     1       9.062   1.113   1.963  1.00  0.00    -0.373 OA
ATOM     11  C   UNL     1       7.219   0.356   0.599  1.00  0.00     0.153 C 
ATOM     12  C   UNL     1       7.690  -0.286   5.214  1.00  0.00     0.105 C 
ENDBRANCH   1   3
BRANCH   1  13
ATOM     13  C   UNL     1       3.778   0.215  -0.138  1.00  0.00     0.135 C 
BRANCH  13  14
ATOM     14  C   UNL     1       4.143   1.644  -0.268  1.00  0.00    -0.039 A 
ATOM     15  C   UNL     1       4.486   2.144  -1.530  1.00  0.00     0.004 A 
ATOM     16  C   UNL     1       4.161   2.509   0.806  1.00  0.00     0.004 A 
ATOM     17  C   UNL     1       4.831   3.470  -1.681  1.00  0.00     0.000 A 
ATOM     18  C   UNL     1       4.506   3.826   0.635  1.00  0.00     0.000 A 
ATOM     19  C   UNL     1       4.849   4.342  -0.603  1.00  0.00     0.000 A 
ENDBRANCH  13  14
ENDBRANCH   1  13
TORSDOF 3
ENDMDL
MODEL 3
REMARK VINA RESULT:      -5.0      1.416      1.867
REMARK SMILES CN1CCOC2CN(C(=O)Cc3ccccc3)CC21
REMARK SMILES IDX 9 1 10 2 8 3 2 4 3 5 19 6 4 7 18 8 6 9 5 10 7 11 1 12 11 13
REMARK SMILES IDX 12 14 13 15 17 16 14 17 16 18 15 19
REMARK H PARENT
ROOT
ATOM      1  C   UNL     1       4.558   0.639   0.678  1.00  0.00     0.227 C 
ATOM      2  O   UNL     1       3.441   0.273   1.129  1.00  0.00    -0.275 OA
ENDROOT
BRANCH   1   3
ATOM      3  N   UNL     1       5.721   0.378   1.447  1.00  0.00    -0.338 N 
ATOM      4  N   UNL     1       8.572   0.987   3.509  1.00  0.00    -0.297 NA
ATOM      5  C   UNL     1       9.740   0.253   3.149  1.00  0.00     0.113 C 
ATOM      6  C   UNL     1       7.336   0.356   3.110  1.00  0.00     0.106 C 
ATOM      7  C   UNL     1       9.578  -1.237   3.084  1.00  0.00     0.176 C 
ATOM      8  C   UNL     1       6.412   1.263   2.363  1.00  0.00     0.141 C 
ATOM      9  C   UNL     1       7.727  -0.599   1.992  1.00  0.00     0.156 C 
ATOM     10  O   UNL     1       8.355  -1.670   2.602  1.00  0.00    -0.373 OA
ATOM     11  C   UNL     1       6.404  -0.918   1.395  1.00  0.00     0.153 C 
ATOM     12  C   UNL     1       8.518   1.340   4.911  1.00  0.00     0.105 C 
ENDBRANCH   1   3
BRANCH   1  13
ATOM     13  C   UNL     1       4.728   1.333  -0.623  1.00  0.00     0.135 C 
BRANCH  13  14
ATOM     14  C   UNL     1       4.574   2.801  -0.491  1.00  0.00    -0.039 A 
ATOM     15  C   UNL     1       4.412   3.352   0.786  1.00  0.00     0.004 A 
ATOM     16  C   UNL     1       4.584   3.651  -1.575  1.00  0.00     0.004 A 
ATOM     17  C   UNL     1       4.265   4.714   0.940  1.00  0.00     0.000 A 
ATOM     18  C   UNL     1       4.437   5.005  -1.402  1.00  0.00     0.000 A 
ATOM     19  C   UNL     1       4.275   5.572  -0.150  1.00  0.00     0.000 A 
ENDBRANCH  13  14
ENDBRANCH   1  13
TORSDOF 3
ENDMDL
MODEL 4
REMARK VINA RESULT:      -4.9      1.480      2.041
REMARK SMILES CN1CCOC2CN(C(=O)Cc3ccccc3)CC21
REMARK SMILES IDX 9 1 10 2 8 3 2 4 3 5 19 6 4 7 18 8 6 9 5 10 7 11 1 12 11 13
REMARK SMILES IDX 12 14 13 15 17 16 14 17 16 18 15 19
REMARK H PARENT
ROOT
ATOM      1  C   UNL     1       4.360   0.175  -0.128  1.00  0.00     0.227 C 
ATOM      2  O   UNL     1       3.476  -0.697   0.078  1.00  0.00    -0.275 OA
ENDROOT
BRANCH   1   3
ATOM      3  N   UNL     1       5.536   0.151   0.665  1.00  0.00    -0.338 N 
ATOM      4  N   UNL     1       7.641   0.456   3.533  1.00  0.00    -0.297 NA
ATOM      5  C   UNL     1       8.901   1.077   3.288  1.00  0.00     0.113 C 
ATOM      6  C   UNL     1       7.068  -0.185   2.373  1.00  0.00     0.106 C 
ATOM      7  C   UNL     1       9.740   0.447   2.216  1.00  0.00     0.176 C 
ATOM      8  C   UNL     1       5.651   0.210   2.108  1.00  0.00     0.141 C 
ATOM      9  C   UNL     1       7.750   0.475   1.184  1.00  0.00     0.156 C 
ATOM     10  O   UNL     1       9.030  -0.047   1.136  1.00  0.00    -0.373 OA
ATOM     11  C   UNL     1       6.870   0.055   0.063  1.00  0.00     0.153 C 
ATOM     12  C   UNL     1       7.655  -0.463   4.650  1.00  0.00     0.105 C 
ENDBRANCH   1   3
BRANCH   1  13
ATOM     13  C   UNL     1       4.242   1.234  -1.161  1.00  0.00     0.135 C 
BRANCH  13  14
ATOM     14  C   UNL     1       4.646   2.561  -0.642  1.00  0.00    -0.039 A 
ATOM     15  C   UNL     1       5.601   3.302  -1.348  1.00  0.00     0.004 A 
ATOM     16  C   UNL     1       4.120   3.100   0.513  1.00  0.00     0.004 A 
ATOM     17  C   UNL     1       5.997   4.540  -0.888  1.00  0.00     0.000 A 
ATOM     18  C   UNL     1       4.527   4.334   0.955  1.00  0.00     0.000 A 
ATOM     19  C   UNL     1       5.469   5.085   0.274  1.00  0.00     0.000 A 
ENDBRANCH  13  14
ENDBRANCH   1  13
TORSDOF 3
ENDMDL
MODEL 5
REMARK VINA RESULT:      -4.7      1.601      1.725
REMARK SMILES CN1CCOC2CN(C(=O)Cc3ccccc3)CC21
REMARK SMILES IDX 9 1 10 2 8 3 2 4 3 5 19 6 4 7 18 8 6 9 5 10 7 11 1 12 11 13
REMARK SMILES IDX 12 14 13 15 17 16 14 17 16 18 15 19
REMARK H PARENT
ROOT
ATOM      1  C   UNL     1       4.290   0.534   0.666  1.00  0.00     0.227 C 
ATOM      2  O   UNL     1       3.191   0.144   1.141  1.00  0.00    -0.275 OA
ENDROOT
BRANCH   1   3
ATOM      3  N   UNL     1       5.475   0.289   1.406  1.00  0.00    -0.338 N 
ATOM      4  N   UNL     1       8.289   0.912   3.513  1.00  0.00    -0.297 NA
ATOM      5  C   UNL     1       9.505   0.305   3.084  1.00  0.00     0.113 C 
ATOM      6  C   UNL     1       7.101   0.230   3.058  1.00  0.00     0.106 C 
ATOM      7  C   UNL     1       9.455  -1.181   2.879  1.00  0.00     0.176 C 
ATOM      8  C   UNL     1       6.106   1.132   2.401  1.00  0.00     0.141 C 
ATOM      9  C   UNL     1       7.553  -0.583   1.854  1.00  0.00     0.156 C 
ATOM     10  O   UNL     1       8.263  -1.656   2.359  1.00  0.00    -0.373 OA
ATOM     11  C   UNL     1       6.252  -0.942   1.231  1.00  0.00     0.153 C 
ATOM     12  C   UNL     1       8.221   1.126   4.942  1.00  0.00     0.105 C 
ENDBRANCH   1   3
BRANCH   1  13
ATOM     13  C   UNL     1       4.416   1.240  -0.634  1.00  0.00     0.135 C 
BRANCH  13  14
ATOM     14  C   UNL     1       4.935   2.617  -0.467  1.00  0.00    -0.039 A 
ATOM     15  C   UNL     1       6.113   2.982  -1.129  1.00  0.00     0.004 A 
ATOM     16  C   UNL     1       4.306   3.560   0.318  1.00  0.00     0.004 A 
ATOM     17  C   UNL     1       6.620   4.257  -0.992  1.00  0.00     0.000 A 
ATOM     18  C   UNL     1       4.826   4.824   0.442  1.00  0.00     0.000 A 
ATOM     19  C   UNL     1       5.988   5.207  -0.204  1.00  0.00     0.000 A 
ENDBRANCH  13  14
ENDBRANCH   1  13
TORSDOF 3
ENDMDL
MODEL 6
REMARK VINA RESULT:      -4.5      0.936      1.424
REMARK SMILES CN1CCOC2CN(C(=O)Cc3ccccc3)CC21
REMARK SMILES IDX 9 1 10 2 8 3 2 4 3 5 19 6 4 7 18 8 6 9 5 10 7 11 1 12 11 13
REMARK SMILES IDX 12 14 13 15 17 16 14 17 16 18 15 19
REMARK H PARENT
ROOT
ATOM      1  C   UNL     1       4.685   0.154   0.875  1.00  0.00     0.227 C 
ATOM      2  O   UNL     1       4.572  -0.905   0.204  1.00  0.00    -0.275 OA
ENDROOT
BRANCH   1   3
ATOM      3  N   UNL     1       5.791   0.288   1.752  1.00  0.00    -0.338 N 
ATOM      4  N   UNL     1       8.956   1.370   3.001  1.00  0.00    -0.297 NA
ATOM      5  C   UNL     1       9.735   0.351   3.625  1.00  0.00     0.113 C 
ATOM      6  C   UNL     1       7.534   1.123   3.033  1.00  0.00     0.106 C 
ATOM      7  C   UNL     1       9.067  -0.381   4.751  1.00  0.00     0.176 C 
ATOM      8  C   UNL     1       6.874   1.250   1.698  1.00  0.00     0.141 C 
ATOM      9  C   UNL     1       7.402  -0.377   3.250  1.00  0.00     0.156 C 
ATOM     10  O   UNL     1       7.711  -0.602   4.579  1.00  0.00    -0.373 OA
ATOM     11  C   UNL     1       5.974  -0.604   2.902  1.00  0.00     0.153 C 
ATOM     12  C   UNL     1       9.240   2.700   3.495  1.00  0.00     0.105 C 
ENDBRANCH   1   3
BRANCH   1  13
ATOM     13  C   UNL     1       3.720   1.279   0.798  1.00  0.00     0.135 C 
BRANCH  13  14
ATOM     14  C   UNL     1       4.313   2.474   0.154  1.00  0.00    -0.039 A 
ATOM     15  C   UNL     1       4.351   3.679   0.865  1.00  0.00     0.004 A 
ATOM     16  C   UNL     1       4.831   2.451  -1.124  1.00  0.00     0.004 A 
ATOM     17  C   UNL     1       4.896   4.807   0.291  1.00  0.00     0.000 A 
ATOM     18  C   UNL     1       5.370   3.585  -1.678  1.00  0.00     0.000 A 
ATOM     19  C   UNL     1       5.418   4.786  -0.994  1.00  0.00     0.000 A 
ENDBRANCH  13  14
ENDBRANCH   1  13
TORSDOF 3
ENDMDL
MODEL 7
REMARK VINA RESULT:      -4.5      2.421      3.901
REMARK SMILES CN1CCOC2CN(C(=O)Cc3ccccc3)CC21
REMARK SMILES IDX 9 1 10 2 8 3 2 4 3 5 19 6 4 7 18 8 6 9 5 10 7 11 1 12 11 13
REMARK SMILES IDX 12 14 13 15 17 16 14 17 16 18 15 19
REMARK H PARENT
ROOT
ATOM      1  C   UNL     1       7.874  -0.173   1.797  1.00  0.00     0.227 C 
ATOM      2  O   UNL     1       8.987  -0.549   1.343  1.00  0.00    -0.275 OA
ENDROOT
BRANCH   1   3
ATOM      3  N   UNL     1       7.783   1.111   2.395  1.00  0.00    -0.338 N 
ATOM      4  N   UNL     1       7.969   4.660   2.736  1.00  0.00    -0.297 NA
ATOM      5  C   UNL     1       8.517   5.115   3.971  1.00  0.00     0.113 C 
ATOM      6  C   UNL     1       7.362   3.352   2.811  1.00  0.00     0.106 C 
ATOM      7  C   UNL     1       7.839   4.609   5.210  1.00  0.00     0.176 C 
ATOM      8  C   UNL     1       7.837   2.409   1.753  1.00  0.00     0.141 C 
ATOM      9  C   UNL     1       7.981   2.702   4.039  1.00  0.00     0.156 C 
ATOM     10  O   UNL     1       7.386   3.303   5.134  1.00  0.00    -0.373 OA
ATOM     11  C   UNL     1       7.611   1.276   3.841  1.00  0.00     0.153 C 
ATOM     12  C   UNL     1       7.052   5.599   2.128  1.00  0.00     0.105 C 
ENDBRANCH   1   3
BRANCH   1  13
ATOM     13  C   UNL     1       6.645  -1.002   1.743  1.00  0.00     0.135 C 
BRANCH  13  14
ATOM     14  C   UNL     1       5.593  -0.377   0.908  1.00  0.00    -0.039 A 
ATOM     15  C   UNL     1       4.381  -0.012   1.506  1.00  0.00     0.004 A 
ATOM     16  C   UNL     1       5.756  -0.139  -0.440  1.00  0.00     0.004 A 
ATOM     17  C   UNL     1       3.383   0.571   0.754  1.00  0.00     0.000 A 
ATOM     18  C   UNL     1       4.751   0.443  -1.172  1.00  0.00     0.000 A 
ATOM     19  C   UNL     1       3.545   0.812  -0.602  1.00  0.00     0.000 A 
ENDBRANCH  13  14
ENDBRANCH   1  13
TORSDOF 3
ENDMDL
MODEL 8
REMARK VINA RESULT:      -4.5      1.220      1.327
REMARK SMILES CN1CCOC2CN(C(=O)Cc3ccccc3)CC21
REMARK SMILES IDX 9 1 10 2 8 3 2 4 3 5 19 6 4 7 18 8 6 9 5 10 7 11 1 12 11 13
REMARK SMILES IDX 12 14 13 15 17 16 14 17 16 18 15 19
REMARK H PARENT
ROOT
ATOM      1  C   UNL     1       4.738  -0.594   0.028  1.00  0.00     0.227 C 
ATOM      2  O   UNL     1       4.724  -1.760  -0.445  1.00  0.00    -0.275 OA
ENDROOT
BRANCH   1   3
ATOM      3  N   UNL     1       5.851  -0.192   0.812  1.00  0.00    -0.338 N 
ATOM      4  N   UNL     1       9.177   0.821   1.623  1.00  0.00    -0.297 NA
ATOM      5  C   UNL     1       9.724   0.205   2.786  1.00  0.00     0.113 C 
ATOM      6  C   UNL     1       7.734   0.891   1.620  1.00  0.00     0.106 C 
ATOM      7  C   UNL     1       8.920   0.357   4.043  1.00  0.00     0.176 C 
ATOM      8  C   UNL     1       7.111   0.366   0.366  1.00  0.00     0.141 C 
ATOM      9  C   UNL     1       7.289  -0.181   2.603  1.00  0.00     0.156 C 
ATOM     10  O   UNL     1       7.548   0.322   3.865  1.00  0.00    -0.373 OA
ATOM     11  C   UNL     1       5.845  -0.307   2.273  1.00  0.00     0.153 C 
ATOM     12  C   UNL     1       9.736   2.125   1.340  1.00  0.00     0.105 C 
ENDBRANCH   1   3
BRANCH   1  13
ATOM     13  C   UNL     1       3.649   0.391  -0.188  1.00  0.00     0.135 C 
BRANCH  13  14
ATOM     14  C   UNL     1       4.148   1.785  -0.141  1.00  0.00    -0.039 A 
ATOM     15  C   UNL     1       4.577   2.391  -1.328  1.00  0.00     0.004 A 
ATOM     16  C   UNL     1       4.209   2.516   1.026  1.00  0.00     0.004 A 
ATOM     17  C   UNL     1       5.046   3.687  -1.316  1.00  0.00     0.000 A 
ATOM     18  C   UNL     1       4.679   3.805   1.019  1.00  0.00     0.000 A 
ATOM     19  C   UNL     1       5.108   4.424  -0.142  1.00  0.00     0.000 A 
ENDBRANCH  13  14
ENDBRANCH   1  13
TORSDOF 3
ENDMDL
MODEL 9
REMARK VINA RESULT:      -4.5      2.191      5.691
REMARK SMILES CN1CCOC2CN(C(=O)Cc3ccccc3)CC21
REMARK SMILES IDX 9 1 10 2 8 3 2 4 3 5 19 6 4 7 18 8 6 9 5 10 7 11 1 12 11 13
REMARK SMILES IDX 12 14 13 15 17 16 14 17 16 18 15 19
REMARK H PARENT
ROOT
ATOM      1  C   UNL     1       4.537   0.061   0.153  1.00  0.00     0.227 C 
ATOM      2  O   UNL     1       3.382  -0.428   0.049  1.00  0.00    -0.275 OA
ENDROOT
BRANCH   1   3
ATOM      3  N   UNL     1       4.680   1.473   0.156  1.00  0.00    -0.338 N 
ATOM      4  N   UNL     1       4.126   4.887   1.042  1.00  0.00    -0.297 NA
ATOM      5  C   UNL     1       4.096   5.794  -0.057  1.00  0.00     0.113 C 
ATOM      6  C   UNL     1       4.896   3.691   0.795  1.00  0.00     0.106 C 
ATOM      7  C   UNL     1       5.305   5.781  -0.945  1.00  0.00     0.176 C 
ATOM      8  C   UNL     1       4.163   2.428   1.115  1.00  0.00     0.141 C 
ATOM      9  C   UNL     1       4.966   3.577  -0.721  1.00  0.00     0.156 C 
ATOM     10  O   UNL     1       5.873   4.534  -1.138  1.00  0.00    -0.373 OA
ATOM     11  C   UNL     1       5.426   2.174  -0.894  1.00  0.00     0.153 C 
ATOM     12  C   UNL     1       4.544   5.497   2.286  1.00  0.00     0.105 C 
ENDBRANCH   1   3
BRANCH   1  13
ATOM     13  C   UNL     1       5.767  -0.761   0.273  1.00  0.00     0.135 C 
BRANCH  13  14
ATOM     14  C   UNL     1       6.564  -0.393   1.466  1.00  0.00    -0.039 A 
ATOM     15  C   UNL     1       6.028  -0.630   2.738  1.00  0.00     0.004 A 
ATOM     16  C   UNL     1       7.816   0.177   1.378  1.00  0.00     0.004 A 
ATOM     17  C   UNL     1       6.746  -0.297   3.867  1.00  0.00     0.000 A 
ATOM     18  C   UNL     1       8.516   0.501   2.514  1.00  0.00     0.000 A 
ATOM     19  C   UNL     1       8.007   0.275   3.781  1.00  0.00     0.000 A 
ENDBRANCH  13  14
ENDBRANCH   1  13
TORSDOF 3
ENDMDL
