MODEL 1
REMARK VINA RESULT:      -3.0      0.000      0.000
REMARK SMILES COc1ccccc1C(OC1OC(C(=O)O)C(O)C(O)C1O)c1cc(OC)c2ccccc2c1OC
REMARK SMILES IDX 10 1 9 2 8 3 3 4 4 5 5 6 7 7 6 8 2 9 1 10 23 11 24 12 34 13
REMARK SMILES IDX 25 14 33 15 28 16 32 17 29 18 31 19 30 20 35 21 36 22 26 23
REMARK SMILES IDX 27 24 11 25 12 26 21 27 13 28 19 29 17 30 22 31 14 33 15 34
REMARK SMILES IDX 16 35 20 37 18 39
REMARK H PARENT 22 32 16 36 20 38 18 40
ROOT
ATOM      1  O   UNL     1       5.115   0.773   1.823  1.00  0.00    -0.337 OA
ENDROOT
BRANCH   1   2
ATOM      2  C   UNL     1       6.296   0.161   1.533  1.00  0.00     0.189 C 
BRANCH   2   3
ATOM      3  C   UNL     1       6.985  -0.235   2.779  1.00  0.00     0.028 A 
ATOM      4  C   UNL     1       8.224  -0.866   2.796  1.00  0.00     0.125 A 
ATOM      5  C   UNL     1       8.819  -1.247   4.000  1.00  0.00     0.047 A 
ATOM      6  C   UNL     1       8.215  -1.018   5.216  1.00  0.00     0.004 A 
ATOM      7  C   UNL     1       6.405  -0.020   4.018  1.00  0.00     0.010 A 
ATOM      8  C   UNL     1       6.989  -0.394   5.206  1.00  0.00     0.001 A 
BRANCH   4   9
ATOM      9  O   UNL     1       8.868  -1.117   1.613  1.00  0.00    -0.496 OA
ATOM     10  C   UNL     1       9.642  -2.290   1.460  1.00  0.00     0.278 C 
ENDBRANCH   4   9
ENDBRANCH   2   3
BRANCH   2  11
ATOM     11  C   UNL     1       7.104   1.130   0.768  1.00  0.00     0.032 A 
ATOM     12  C   UNL     1       7.555   0.777  -0.511  1.00  0.00     0.057 A 
ATOM     13  C   UNL     1       7.453   2.384   1.200  1.00  0.00     0.133 A 
ATOM     14  C   UNL     1       8.298   1.618  -1.295  1.00  0.00     0.127 A 
ATOM     15  C   UNL     1       8.214   3.244   0.396  1.00  0.00     0.028 A 
ATOM     16  C   UNL     1       8.645   2.873  -0.859  1.00  0.00     0.027 A 
ATOM     17  C   UNL     1       8.566   4.510   0.823  1.00  0.00     0.013 A 
ATOM     18  C   UNL     1       9.387   3.691  -1.666  1.00  0.00     0.013 A 
ATOM     19  C   UNL     1       9.314   5.367   0.038  1.00  0.00     0.001 A 
ATOM     20  C   UNL     1       9.733   4.966  -1.216  1.00  0.00     0.001 A 
BRANCH  13  21
ATOM     21  O   UNL     1       7.090   2.885   2.433  1.00  0.00    -0.496 OA
ATOM     22  C   UNL     1       8.059   3.144   3.407  1.00  0.00     0.278 C 
ENDBRANCH  13  21
BRANCH  14  23
ATOM     23  O   UNL     1       8.716   1.224  -2.541  1.00  0.00    -0.496 OA
ATOM     24  C   UNL     1       9.548   2.040  -3.311  1.00  0.00     0.278 C 
ENDBRANCH  14  23
ENDBRANCH   2  11
ENDBRANCH   1   2
BRANCH   1  25
ATOM     25  C   UNL     1       4.106   0.715   0.915  1.00  0.00     0.283 C 
ATOM     26  O   UNL     1       3.699   2.045   0.779  1.00  0.00    -0.332 OA
ATOM     27  C   UNL     1       4.408   0.185  -0.440  1.00  0.00     0.202 C 
ATOM     28  C   UNL     1       4.566   2.792   0.007  1.00  0.00     0.262 C 
ATOM     29  C   UNL     1       3.766   1.074  -1.511  1.00  0.00     0.180 C 
ATOM     30  C   UNL     1       4.251   2.490  -1.426  1.00  0.00     0.186 C 
BRANCH  27  31
ATOM     31  O   UNL     1       3.777  -1.057  -0.687  1.00  0.00    -0.385 OA
ATOM     32  H   UNL     1       3.522  -1.073  -1.625  1.00  0.00     0.211 HD
ENDBRANCH  27  31
BRANCH  28  33
ATOM     33  C   UNL     1       4.632   4.217   0.345  1.00  0.00     0.335 C 
ATOM     34  O   UNL     1       4.259   4.660   1.482  1.00  0.00    -0.249 OA
BRANCH  33  35
ATOM     35  O   UNL     1       5.104   5.195  -0.542  1.00  0.00    -0.479 OA
ATOM     36  H   UNL     1       4.906   6.169  -0.405  1.00  0.00     0.296 HD
ENDBRANCH  33  35
ENDBRANCH  28  33
BRANCH  29  37
ATOM     37  O   UNL     1       2.391   1.076  -1.222  1.00  0.00    -0.387 OA
ATOM     38  H   UNL     1       1.855   1.248  -2.034  1.00  0.00     0.211 HD
ENDBRANCH  29  37
BRANCH  30  39
ATOM     39  O   UNL     1       5.308   2.766  -2.275  1.00  0.00    -0.387 OA
ATOM     40  H   UNL     1       5.732   1.905  -2.525  1.00  0.00     0.211 HD
ENDBRANCH  30  39
ENDBRANCH   1  25
TORSDOF 12
ENDMDL
