MODEL 1
REMARK VINA RESULT:      -4.1      0.000      0.000
REMARK SMILES O=C(Nc1ccccc1F)c1cccc(OCC(=O)N2CCCCC2)c1
REMARK SMILES IDX 11 1 12 2 13 3 14 4 15 5 26 6 2 7 3 8 1 9 4 11 5 12 9 13
REMARK SMILES IDX 6 14 8 15 7 16 10 17 16 18 17 19 18 20 20 21 21 22 25 23
REMARK SMILES IDX 22 24 24 25 23 26 19 27
REMARK H PARENT 3 10
ROOT
ATOM      1  C   UNL     1       5.296   0.483   0.203  1.00  0.00     0.043 A 
ATOM      2  C   UNL     1       4.132   0.024  -0.371  1.00  0.00     0.014 A 
ATOM      3  C   UNL     1       3.424   0.760  -1.285  1.00  0.00     0.005 A 
ATOM      4  C   UNL     1       3.918   2.002  -1.626  1.00  0.00     0.046 A 
ATOM      5  C   UNL     1       5.075   2.505  -1.081  1.00  0.00     0.120 A 
ATOM      6  C   UNL     1       5.763   1.729  -0.158  1.00  0.00     0.060 A 
ENDROOT
BRANCH   1   7
ATOM      7  C   UNL     1       6.070  -0.278   1.178  1.00  0.00     0.255 C 
ATOM      8  N   UNL     1       7.179   0.269   1.879  1.00  0.00    -0.319 N 
ATOM      9  O   UNL     1       5.789  -1.491   1.459  1.00  0.00    -0.269 OA
ATOM     10  H   UNL     1       7.477   1.252   1.711  1.00  0.00     0.170 HD
BRANCH   8  11
ATOM     11  C   UNL     1       7.932  -0.474   2.828  1.00  0.00     0.077 A 
ATOM     12  C   UNL     1       7.675  -0.280   4.178  1.00  0.00     0.029 A 
ATOM     13  C   UNL     1       8.903  -1.377   2.441  1.00  0.00     0.146 A 
ATOM     14  C   UNL     1       8.404  -1.002   5.109  1.00  0.00     0.002 A 
ATOM     15  C   UNL     1       9.641  -2.107   3.343  1.00  0.00     0.041 A 
ATOM     16  C   UNL     1       9.373  -1.901   4.691  1.00  0.00     0.003 A 
ATOM     17  F   UNL     1       9.105  -1.519   1.110  1.00  0.00    -0.205 F 
ENDBRANCH   8  11
ENDBRANCH   1   7
BRANCH   5  18
ATOM     18  O   UNL     1       5.604   3.749  -1.397  1.00  0.00    -0.484 OA
BRANCH  18  19
ATOM     19  C   UNL     1       6.852   4.103  -0.880  1.00  0.00     0.329 C 
BRANCH  19  20
ATOM     20  C   UNL     1       6.746   4.854   0.367  1.00  0.00     0.260 C 
ATOM     21  N   UNL     1       7.590   4.894   1.474  1.00  0.00    -0.340 N 
ATOM     22  C   UNL     1       8.796   4.144   1.708  1.00  0.00     0.119 C 
ATOM     23  C   UNL     1       7.234   5.821   2.583  1.00  0.00     0.119 C 
ATOM     24  C   UNL     1       8.793   3.839   3.223  1.00  0.00     0.022 C 
ATOM     25  C   UNL     1       6.601   4.946   3.671  1.00  0.00     0.022 C 
ATOM     26  C   UNL     1       7.345   3.606   3.612  1.00  0.00     0.004 C 
ATOM     27  O   UNL     1       5.683   5.602   0.445  1.00  0.00    -0.271 OA
ENDBRANCH  19  20
ENDBRANCH  18  19
ENDBRANCH   5  18
TORSDOF 5
ENDMDL
MODEL 2
REMARK VINA RESULT:      -4.1      0.966      1.434
REMARK SMILES O=C(Nc1ccccc1F)c1cccc(OCC(=O)N2CCCCC2)c1
REMARK SMILES IDX 11 1 12 2 13 3 14 4 15 5 26 6 2 7 3 8 1 9 4 11 5 12 9 13
REMARK SMILES IDX 6 14 8 15 7 16 10 17 16 18 17 19 18 20 20 21 21 22 25 23
REMARK SMILES IDX 22 24 24 25 23 26 19 27
REMARK H PARENT 3 10
ROOT
ATOM      1  C   UNL     1       5.219   0.573   0.720  1.00  0.00     0.043 A 
ATOM      2  C   UNL     1       4.178  -0.108   0.129  1.00  0.00     0.014 A 
ATOM      3  C   UNL     1       3.446   0.420  -0.902  1.00  0.00     0.005 A 
ATOM      4  C   UNL     1       3.784   1.682  -1.346  1.00  0.00     0.046 A 
ATOM      5  C   UNL     1       4.814   2.402  -0.790  1.00  0.00     0.120 A 
ATOM      6  C   UNL     1       5.531   1.832   0.253  1.00  0.00     0.060 A 
ENDROOT
BRANCH   1   7
ATOM      7  C   UNL     1       6.014   0.036   1.818  1.00  0.00     0.255 C 
ATOM      8  N   UNL     1       7.431   0.153   1.873  1.00  0.00    -0.319 N 
ATOM      9  O   UNL     1       5.476  -0.576   2.800  1.00  0.00    -0.269 OA
ATOM     10  H   UNL     1       7.950   0.637   1.113  1.00  0.00     0.170 HD
BRANCH   8  11
ATOM     11  C   UNL     1       8.204  -0.372   2.944  1.00  0.00     0.077 A 
ATOM     12  C   UNL     1       8.190   0.295   4.161  1.00  0.00     0.029 A 
ATOM     13  C   UNL     1       8.961  -1.518   2.802  1.00  0.00     0.146 A 
ATOM     14  C   UNL     1       8.941  -0.212   5.210  1.00  0.00     0.002 A 
ATOM     15  C   UNL     1       9.715  -2.042   3.825  1.00  0.00     0.041 A 
ATOM     16  C   UNL     1       9.692  -1.364   5.038  1.00  0.00     0.003 A 
ATOM     17  F   UNL     1       8.931  -2.120   1.590  1.00  0.00    -0.205 F 
ENDBRANCH   8  11
ENDBRANCH   1   7
BRANCH   5  18
ATOM     18  O   UNL     1       5.186   3.672  -1.207  1.00  0.00    -0.484 OA
BRANCH  18  19
ATOM     19  C   UNL     1       5.642   4.589  -0.258  1.00  0.00     0.329 C 
BRANCH  19  20
ATOM     20  C   UNL     1       7.046   4.385   0.083  1.00  0.00     0.260 C 
ATOM     21  N   UNL     1       7.650   4.108   1.307  1.00  0.00    -0.340 N 
ATOM     22  C   UNL     1       7.035   3.999   2.604  1.00  0.00     0.119 C 
ATOM     23  C   UNL     1       9.123   3.890   1.320  1.00  0.00     0.119 C 
ATOM     24  C   UNL     1       8.065   4.597   3.589  1.00  0.00     0.022 C 
ATOM     25  C   UNL     1       9.734   5.199   1.833  1.00  0.00     0.022 C 
ATOM     26  C   UNL     1       8.738   5.746   2.863  1.00  0.00     0.004 C 
ATOM     27  O   UNL     1       7.856   4.484  -0.932  1.00  0.00    -0.271 OA
ENDBRANCH  19  20
ENDBRANCH  18  19
ENDBRANCH   5  18
TORSDOF 5
ENDMDL
MODEL 3
REMARK VINA RESULT:      -3.8      2.494      5.829
REMARK SMILES O=C(Nc1ccccc1F)c1cccc(OCC(=O)N2CCCCC2)c1
REMARK SMILES IDX 11 1 12 2 13 3 14 4 15 5 26 6 2 7 3 8 1 9 4 11 5 12 9 13
REMARK SMILES IDX 6 14 8 15 7 16 10 17 16 18 17 19 18 20 20 21 21 22 25 23
REMARK SMILES IDX 22 24 24 25 23 26 19 27
REMARK H PARENT 3 10
ROOT
ATOM      1  C   UNL     1       5.376   1.549  -0.373  1.00  0.00     0.043 A 
ATOM      2  C   UNL     1       4.450   0.740  -0.991  1.00  0.00     0.014 A 
ATOM      3  C   UNL     1       3.758  -0.233  -0.318  1.00  0.00     0.005 A 
ATOM      4  C   UNL     1       4.018  -0.386   1.029  1.00  0.00     0.046 A 
ATOM      5  C   UNL     1       4.933   0.397   1.691  1.00  0.00     0.120 A 
ATOM      6  C   UNL     1       5.614   1.370   0.973  1.00  0.00     0.060 A 
ENDROOT
BRANCH   1   7
ATOM      7  C   UNL     1       6.126   2.591  -1.065  1.00  0.00     0.255 C 
ATOM      8  N   UNL     1       7.521   2.495  -1.323  1.00  0.00    -0.319 N 
ATOM      9  O   UNL     1       5.564   3.659  -1.480  1.00  0.00    -0.269 OA
ATOM     10  H   UNL     1       8.058   1.658  -1.019  1.00  0.00     0.170 HD
BRANCH   8  11
ATOM     11  C   UNL     1       8.250   3.513  -1.997  1.00  0.00     0.077 A 
ATOM     12  C   UNL     1       8.863   3.203  -3.203  1.00  0.00     0.029 A 
ATOM     13  C   UNL     1       8.361   4.790  -1.483  1.00  0.00     0.146 A 
ATOM     14  C   UNL     1       9.574   4.190  -3.865  1.00  0.00     0.002 A 
ATOM     15  C   UNL     1       9.061   5.789  -2.119  1.00  0.00     0.041 A 
ATOM     16  C   UNL     1       9.669   5.463  -3.326  1.00  0.00     0.003 A 
ATOM     17  F   UNL     1       7.741   5.027  -0.304  1.00  0.00    -0.205 F 
ENDBRANCH   8  11
ENDBRANCH   1   7
BRANCH   5  18
ATOM     18  O   UNL     1       5.223   0.274   3.044  1.00  0.00    -0.484 OA
BRANCH  18  19
ATOM     19  C   UNL     1       6.203  -0.636   3.444  1.00  0.00     0.329 C 
BRANCH  19  20
ATOM     20  C   UNL     1       7.491  -0.384   2.807  1.00  0.00     0.260 C 
ATOM     21  N   UNL     1       8.487   0.542   3.110  1.00  0.00    -0.340 N 
ATOM     22  C   UNL     1       8.482   1.558   4.129  1.00  0.00     0.119 C 
ATOM     23  C   UNL     1       9.734   0.510   2.297  1.00  0.00     0.119 C 
ATOM     24  C   UNL     1       9.226   2.759   3.502  1.00  0.00     0.022 C 
ATOM     25  C   UNL     1       9.606   1.661   1.293  1.00  0.00     0.022 C 
ATOM     26  C   UNL     1       8.855   2.776   2.032  1.00  0.00     0.004 C 
ATOM     27  O   UNL     1       7.736  -1.157   1.787  1.00  0.00    -0.271 OA
ENDBRANCH  19  20
ENDBRANCH  18  19
ENDBRANCH   5  18
TORSDOF 5
ENDMDL
MODEL 4
REMARK VINA RESULT:      -3.7      2.021      2.504
REMARK SMILES O=C(Nc1ccccc1F)c1cccc(OCC(=O)N2CCCCC2)c1
REMARK SMILES IDX 11 1 12 2 13 3 14 4 15 5 26 6 2 7 3 8 1 9 4 11 5 12 9 13
REMARK SMILES IDX 6 14 8 15 7 16 10 17 16 18 17 19 18 20 20 21 21 22 25 23
REMARK SMILES IDX 22 24 24 25 23 26 19 27
REMARK H PARENT 3 10
ROOT
ATOM      1  C   UNL     1       4.962   0.216   1.116  1.00  0.00     0.043 A 
ATOM      2  C   UNL     1       3.601   0.017   1.048  1.00  0.00     0.014 A 
ATOM      3  C   UNL     1       2.811   0.655   0.129  1.00  0.00     0.005 A 
ATOM      4  C   UNL     1       3.424   1.524  -0.750  1.00  0.00     0.046 A 
ATOM      5  C   UNL     1       4.779   1.757  -0.722  1.00  0.00     0.120 A 
ATOM      6  C   UNL     1       5.545   1.091   0.224  1.00  0.00     0.060 A 
ENDROOT
BRANCH   1   7
ATOM      7  C   UNL     1       5.828  -0.449   2.082  1.00  0.00     0.255 C 
ATOM      8  N   UNL     1       7.247  -0.384   2.020  1.00  0.00    -0.319 N 
ATOM      9  O   UNL     1       5.353  -1.135   3.048  1.00  0.00    -0.269 OA
ATOM     10  H   UNL     1       7.718   0.154   1.264  1.00  0.00     0.170 HD
BRANCH   8  11
ATOM     11  C   UNL     1       8.089  -1.033   2.963  1.00  0.00     0.077 A 
ATOM     12  C   UNL     1       8.890  -2.080   2.527  1.00  0.00     0.029 A 
ATOM     13  C   UNL     1       8.127  -0.651   4.289  1.00  0.00     0.146 A 
ATOM     14  C   UNL     1       9.713  -2.717   3.441  1.00  0.00     0.002 A 
ATOM     15  C   UNL     1       8.935  -1.266   5.217  1.00  0.00     0.041 A 
ATOM     16  C   UNL     1       9.731  -2.313   4.766  1.00  0.00     0.003 A 
ATOM     17  F   UNL     1       7.322   0.375   4.650  1.00  0.00    -0.205 F 
ENDBRANCH   8  11
ENDBRANCH   1   7
BRANCH   5  18
ATOM     18  O   UNL     1       5.434   2.622  -1.588  1.00  0.00    -0.484 OA
BRANCH  18  19
ATOM     19  C   UNL     1       5.382   3.995  -1.337  1.00  0.00     0.329 C 
BRANCH  19  20
ATOM     20  C   UNL     1       6.691   4.552  -1.012  1.00  0.00     0.260 C 
ATOM     21  N   UNL     1       7.971   4.076  -1.286  1.00  0.00    -0.340 N 
ATOM     22  C   UNL     1       8.349   2.847  -1.934  1.00  0.00     0.119 C 
ATOM     23  C   UNL     1       9.127   4.917  -0.870  1.00  0.00     0.119 C 
ATOM     24  C   UNL     1       9.633   2.388  -1.206  1.00  0.00     0.022 C 
ATOM     25  C   UNL     1       9.662   4.283   0.418  1.00  0.00     0.022 C 
ATOM     26  C   UNL     1       9.461   2.771   0.252  1.00  0.00     0.004 C 
ATOM     27  O   UNL     1       6.639   5.676  -0.357  1.00  0.00    -0.271 OA
ENDBRANCH  19  20
ENDBRANCH  18  19
ENDBRANCH   5  18
TORSDOF 5
ENDMDL
MODEL 5
REMARK VINA RESULT:      -3.5      2.334      5.524
REMARK SMILES O=C(Nc1ccccc1F)c1cccc(OCC(=O)N2CCCCC2)c1
REMARK SMILES IDX 11 1 12 2 13 3 14 4 15 5 26 6 2 7 3 8 1 9 4 11 5 12 9 13
REMARK SMILES IDX 6 14 8 15 7 16 10 17 16 18 17 19 18 20 20 21 21 22 25 23
REMARK SMILES IDX 22 24 24 25 23 26 19 27
REMARK H PARENT 3 10
ROOT
ATOM      1  C   UNL     1       5.220   1.921  -0.069  1.00  0.00     0.043 A 
ATOM      2  C   UNL     1       3.852   1.822  -0.188  1.00  0.00     0.014 A 
ATOM      3  C   UNL     1       3.112   0.935   0.549  1.00  0.00     0.005 A 
ATOM      4  C   UNL     1       3.787   0.122   1.437  1.00  0.00     0.046 A 
ATOM      5  C   UNL     1       5.152   0.182   1.592  1.00  0.00     0.120 A 
ATOM      6  C   UNL     1       5.865   1.094   0.827  1.00  0.00     0.060 A 
ENDROOT
BRANCH   1   7
ATOM      7  C   UNL     1       6.032   2.856  -0.840  1.00  0.00     0.255 C 
ATOM      8  N   UNL     1       7.425   2.671  -1.056  1.00  0.00    -0.319 N 
ATOM      9  O   UNL     1       5.529   3.903  -1.369  1.00  0.00    -0.269 OA
ATOM     10  H   UNL     1       7.915   1.843  -0.659  1.00  0.00     0.170 HD
BRANCH   8  11
ATOM     11  C   UNL     1       8.214   3.584  -1.806  1.00  0.00     0.077 A 
ATOM     12  C   UNL     1       8.219   4.920  -1.433  1.00  0.00     0.029 A 
ATOM     13  C   UNL     1       8.968   3.175  -2.889  1.00  0.00     0.146 A 
ATOM     14  C   UNL     1       8.986   5.815  -2.160  1.00  0.00     0.002 A 
ATOM     15  C   UNL     1       9.739   4.041  -3.628  1.00  0.00     0.041 A 
ATOM     16  C   UNL     1       9.733   5.377  -3.242  1.00  0.00     0.003 A 
ATOM     17  F   UNL     1       8.920   1.859  -3.201  1.00  0.00    -0.205 F 
ENDBRANCH   8  11
ENDBRANCH   1   7
BRANCH   5  18
ATOM     18  O   UNL     1       5.867  -0.617   2.473  1.00  0.00    -0.484 OA
BRANCH  18  19
ATOM     19  C   UNL     1       7.132  -1.073   2.096  1.00  0.00     0.329 C 
BRANCH  19  20
ATOM     20  C   UNL     1       8.120  -0.002   2.051  1.00  0.00     0.260 C 
ATOM     21  N   UNL     1       8.660   0.777   3.073  1.00  0.00    -0.340 N 
ATOM     22  C   UNL     1       8.334   0.762   4.475  1.00  0.00     0.119 C 
ATOM     23  C   UNL     1       9.713   1.764   2.710  1.00  0.00     0.119 C 
ATOM     24  C   UNL     1       8.435   2.238   4.926  1.00  0.00     0.022 C 
ATOM     25  C   UNL     1       9.010   3.126   2.665  1.00  0.00     0.022 C 
ATOM     26  C   UNL     1       7.940   3.078   3.764  1.00  0.00     0.004 C 
ATOM     27  O   UNL     1       8.560   0.262   0.854  1.00  0.00    -0.271 OA
ENDBRANCH  19  20
ENDBRANCH  18  19
ENDBRANCH   5  18
TORSDOF 5
ENDMDL
MODEL 6
REMARK VINA RESULT:      -3.2      2.285      5.580
REMARK SMILES O=C(Nc1ccccc1F)c1cccc(OCC(=O)N2CCCCC2)c1
REMARK SMILES IDX 11 1 12 2 13 3 14 4 15 5 26 6 2 7 3 8 1 9 4 11 5 12 9 13
REMARK SMILES IDX 6 14 8 15 7 16 10 17 16 18 17 19 18 20 20 21 21 22 25 23
REMARK SMILES IDX 22 24 24 25 23 26 19 27
REMARK H PARENT 3 10
ROOT
ATOM      1  C   UNL     1       4.998   1.658  -0.325  1.00  0.00     0.043 A 
ATOM      2  C   UNL     1       3.782   1.372  -0.903  1.00  0.00     0.014 A 
ATOM      3  C   UNL     1       2.973   0.363  -0.451  1.00  0.00     0.005 A 
ATOM      4  C   UNL     1       3.416  -0.380   0.624  1.00  0.00     0.046 A 
ATOM      5  C   UNL     1       4.623  -0.134   1.235  1.00  0.00     0.120 A 
ATOM      6  C   UNL     1       5.413   0.897   0.747  1.00  0.00     0.060 A 
ENDROOT
BRANCH   1   7
ATOM      7  C   UNL     1       5.879   2.725  -0.785  1.00  0.00     0.255 C 
ATOM      8  N   UNL     1       7.083   2.478  -1.501  1.00  0.00    -0.319 N 
ATOM      9  O   UNL     1       5.615   3.954  -0.566  1.00  0.00    -0.269 OA
ATOM     10  H   UNL     1       7.375   1.504  -1.722  1.00  0.00     0.170 HD
BRANCH   8  11
ATOM     11  C   UNL     1       7.940   3.520  -1.946  1.00  0.00     0.077 A 
ATOM     12  C   UNL     1       7.808   4.778  -1.376  1.00  0.00     0.029 A 
ATOM     13  C   UNL     1       8.892   3.311  -2.925  1.00  0.00     0.146 A 
ATOM     14  C   UNL     1       8.641   5.798  -1.805  1.00  0.00     0.002 A 
ATOM     15  C   UNL     1       9.732   4.305  -3.370  1.00  0.00     0.041 A 
ATOM     16  C   UNL     1       9.587   5.560  -2.790  1.00  0.00     0.003 A 
ATOM     17  F   UNL     1       8.970   2.062  -3.440  1.00  0.00    -0.205 F 
ENDBRANCH   8  11
ENDBRANCH   1   7
BRANCH   5  18
ATOM     18  O   UNL     1       5.104  -0.858   2.318  1.00  0.00    -0.484 OA
BRANCH  18  19
ATOM     19  C   UNL     1       5.818  -0.188   3.313  1.00  0.00     0.329 C 
BRANCH  19  20
ATOM     20  C   UNL     1       7.225  -0.014   2.969  1.00  0.00     0.260 C 
ATOM     21  N   UNL     1       8.046   1.108   3.052  1.00  0.00    -0.340 N 
ATOM     22  C   UNL     1       7.697   2.444   3.462  1.00  0.00     0.119 C 
ATOM     23  C   UNL     1       9.478   0.949   2.676  1.00  0.00     0.119 C 
ATOM     24  C   UNL     1       8.542   3.374   2.562  1.00  0.00     0.022 C 
ATOM     25  C   UNL     1       9.605   1.526   1.262  1.00  0.00     0.022 C 
ATOM     26  C   UNL     1       8.622   2.703   1.203  1.00  0.00     0.004 C 
ATOM     27  O   UNL     1       7.794  -1.091   2.507  1.00  0.00    -0.271 OA
ENDBRANCH  19  20
ENDBRANCH  18  19
ENDBRANCH   5  18
TORSDOF 5
ENDMDL
MODEL 7
REMARK VINA RESULT:      -3.1      1.567      2.353
REMARK SMILES O=C(Nc1ccccc1F)c1cccc(OCC(=O)N2CCCCC2)c1
REMARK SMILES IDX 11 1 12 2 13 3 14 4 15 5 26 6 2 7 3 8 1 9 4 11 5 12 9 13
REMARK SMILES IDX 6 14 8 15 7 16 10 17 16 18 17 19 18 20 20 21 21 22 25 23
REMARK SMILES IDX 22 24 24 25 23 26 19 27
REMARK H PARENT 3 10
ROOT
ATOM      1  C   UNL     1       5.721   1.442   0.692  1.00  0.00     0.043 A 
ATOM      2  C   UNL     1       5.189   0.869  -0.441  1.00  0.00     0.014 A 
ATOM      3  C   UNL     1       4.566   1.605  -1.414  1.00  0.00     0.005 A 
ATOM      4  C   UNL     1       4.482   2.970  -1.228  1.00  0.00     0.046 A 
ATOM      5  C   UNL     1       4.998   3.590  -0.115  1.00  0.00     0.120 A 
ATOM      6  C   UNL     1       5.621   2.809   0.848  1.00  0.00     0.060 A 
ENDROOT
BRANCH   1   7
ATOM      7  C   UNL     1       6.389   0.684   1.743  1.00  0.00     0.255 C 
ATOM      8  N   UNL     1       7.786   0.417   1.733  1.00  0.00    -0.319 N 
ATOM      9  O   UNL     1       5.749   0.213   2.741  1.00  0.00    -0.269 OA
ATOM     10  H   UNL     1       8.384   0.764   0.956  1.00  0.00     0.170 HD
BRANCH   8  11
ATOM     11  C   UNL     1       8.434  -0.323   2.758  1.00  0.00     0.077 A 
ATOM     12  C   UNL     1       8.824  -1.628   2.490  1.00  0.00     0.029 A 
ATOM     13  C   UNL     1       8.683   0.221   4.003  1.00  0.00     0.146 A 
ATOM     14  C   UNL     1       9.457  -2.355   3.484  1.00  0.00     0.002 A 
ATOM     15  C   UNL     1       9.310  -0.478   5.008  1.00  0.00     0.041 A 
ATOM     16  C   UNL     1       9.693  -1.783   4.725  1.00  0.00     0.003 A 
ATOM     17  F   UNL     1       8.279   1.497   4.200  1.00  0.00    -0.205 F 
ENDBRANCH   8  11
ENDBRANCH   1   7
BRANCH   5  18
ATOM     18  O   UNL     1       4.934   4.959   0.109  1.00  0.00    -0.484 OA
BRANCH  18  19
ATOM     19  C   UNL     1       5.221   5.448   1.385  1.00  0.00     0.329 C 
BRANCH  19  20
ATOM     20  C   UNL     1       6.602   5.197   1.781  1.00  0.00     0.260 C 
ATOM     21  N   UNL     1       7.783   5.265   1.044  1.00  0.00    -0.340 N 
ATOM     22  C   UNL     1       7.947   5.560  -0.356  1.00  0.00     0.119 C 
ATOM     23  C   UNL     1       9.062   5.007   1.759  1.00  0.00     0.119 C 
ATOM     24  C   UNL     1       9.119   4.665  -0.819  1.00  0.00     0.022 C 
ATOM     25  C   UNL     1       9.459   3.571   1.399  1.00  0.00     0.022 C 
ATOM     26  C   UNL     1       8.997   3.364  -0.050  1.00  0.00     0.004 C 
ATOM     27  O   UNL     1       6.740   4.849   3.029  1.00  0.00    -0.271 OA
ENDBRANCH  19  20
ENDBRANCH  18  19
ENDBRANCH   5  18
TORSDOF 5
ENDMDL
MODEL 8
REMARK VINA RESULT:      -3.0      2.013      4.367
REMARK SMILES O=C(Nc1ccccc1F)c1cccc(OCC(=O)N2CCCCC2)c1
REMARK SMILES IDX 11 1 12 2 13 3 14 4 15 5 26 6 2 7 3 8 1 9 4 11 5 12 9 13
REMARK SMILES IDX 6 14 8 15 7 16 10 17 16 18 17 19 18 20 20 21 21 22 25 23
REMARK SMILES IDX 22 24 24 25 23 26 19 27
REMARK H PARENT 3 10
ROOT
ATOM      1  C   UNL     1       8.678   4.164   0.614  1.00  0.00     0.043 A 
ATOM      2  C   UNL     1       9.625   4.959   0.008  1.00  0.00     0.014 A 
ATOM      3  C   UNL     1       9.321   5.802  -1.028  1.00  0.00     0.005 A 
ATOM      4  C   UNL     1       8.012   5.838  -1.462  1.00  0.00     0.046 A 
ATOM      5  C   UNL     1       7.030   5.065  -0.889  1.00  0.00     0.120 A 
ATOM      6  C   UNL     1       7.378   4.223   0.158  1.00  0.00     0.060 A 
ENDROOT
BRANCH   1   7
ATOM      7  C   UNL     1       8.972   3.258   1.719  1.00  0.00     0.255 C 
ATOM      8  N   UNL     1       8.435   1.944   1.803  1.00  0.00    -0.319 N 
ATOM      9  O   UNL     1       9.737   3.600   2.682  1.00  0.00    -0.269 OA
ATOM     10  H   UNL     1       7.802   1.585   1.059  1.00  0.00     0.170 HD
BRANCH   8  11
ATOM     11  C   UNL     1       8.723   1.064   2.880  1.00  0.00     0.077 A 
ATOM     12  C   UNL     1       8.957   1.606   4.136  1.00  0.00     0.029 A 
ATOM     13  C   UNL     1       8.773  -0.306   2.708  1.00  0.00     0.146 A 
ATOM     14  C   UNL     1       9.238   0.753   5.191  1.00  0.00     0.002 A 
ATOM     15  C   UNL     1       9.049  -1.175   3.737  1.00  0.00     0.041 A 
ATOM     16  C   UNL     1       9.282  -0.617   4.989  1.00  0.00     0.003 A 
ATOM     17  F   UNL     1       8.535  -0.770   1.459  1.00  0.00    -0.205 F 
ENDBRANCH   8  11
ENDBRANCH   1   7
BRANCH   5  18
ATOM     18  O   UNL     1       5.702   5.072  -1.295  1.00  0.00    -0.484 OA
BRANCH  18  19
ATOM     19  C   UNL     1       5.084   3.858  -1.604  1.00  0.00     0.329 C 
BRANCH  19  20
ATOM     20  C   UNL     1       4.727   3.096  -0.412  1.00  0.00     0.260 C 
ATOM     21  N   UNL     1       5.075   1.804  -0.024  1.00  0.00    -0.340 N 
ATOM     22  C   UNL     1       5.859   0.835  -0.745  1.00  0.00     0.119 C 
ATOM     23  C   UNL     1       4.594   1.324   1.300  1.00  0.00     0.119 C 
ATOM     24  C   UNL     1       5.209  -0.529  -0.418  1.00  0.00     0.022 C 
ATOM     25  C   UNL     1       3.392   0.421   1.005  1.00  0.00     0.022 C 
ATOM     26  C   UNL     1       3.716  -0.282  -0.319  1.00  0.00     0.004 C 
ATOM     27  O   UNL     1       3.954   3.740   0.415  1.00  0.00    -0.271 OA
ENDBRANCH  19  20
ENDBRANCH  18  19
ENDBRANCH   5  18
TORSDOF 5
ENDMDL
MODEL 9
REMARK VINA RESULT:      -2.4      1.373      1.955
REMARK SMILES O=C(Nc1ccccc1F)c1cccc(OCC(=O)N2CCCCC2)c1
REMARK SMILES IDX 11 1 12 2 13 3 14 4 15 5 26 6 2 7 3 8 1 9 4 11 5 12 9 13
REMARK SMILES IDX 6 14 8 15 7 16 10 17 16 18 17 19 18 20 20 21 21 22 25 23
REMARK SMILES IDX 22 24 24 25 23 26 19 27
REMARK H PARENT 3 10
ROOT
ATOM      1  C   UNL     1       5.169  -0.293   0.395  1.00  0.00     0.043 A 
ATOM      2  C   UNL     1       4.150  -1.029  -0.167  1.00  0.00     0.014 A 
ATOM      3  C   UNL     1       3.386  -0.555  -1.201  1.00  0.00     0.005 A 
ATOM      4  C   UNL     1       3.669   0.708  -1.679  1.00  0.00     0.046 A 
ATOM      5  C   UNL     1       4.676   1.481  -1.152  1.00  0.00     0.120 A 
ATOM      6  C   UNL     1       5.427   0.966  -0.104  1.00  0.00     0.060 A 
ENDROOT
BRANCH   1   7
ATOM      7  C   UNL     1       5.998  -0.771   1.496  1.00  0.00     0.255 C 
ATOM      8  N   UNL     1       7.359  -0.394   1.657  1.00  0.00    -0.319 N 
ATOM      9  O   UNL     1       5.540  -1.564   2.385  1.00  0.00    -0.269 OA
ATOM     10  H   UNL     1       7.813   0.249   0.977  1.00  0.00     0.170 HD
BRANCH   8  11
ATOM     11  C   UNL     1       8.164  -0.862   2.730  1.00  0.00     0.077 A 
ATOM     12  C   UNL     1       8.950  -1.989   2.529  1.00  0.00     0.029 A 
ATOM     13  C   UNL     1       8.183  -0.228   3.957  1.00  0.00     0.146 A 
ATOM     14  C   UNL     1       9.738  -2.450   3.570  1.00  0.00     0.002 A 
ATOM     15  C   UNL     1       8.955  -0.664   5.008  1.00  0.00     0.041 A 
ATOM     16  C   UNL     1       9.736  -1.794   4.791  1.00  0.00     0.003 A 
ATOM     17  F   UNL     1       7.395   0.864   4.089  1.00  0.00    -0.205 F 
ENDBRANCH   8  11
ENDBRANCH   1   7
BRANCH   5  18
ATOM     18  O   UNL     1       4.992   2.755  -1.604  1.00  0.00    -0.484 OA
BRANCH  18  19
ATOM     19  C   UNL     1       4.370   3.856  -1.011  1.00  0.00     0.329 C 
BRANCH  19  20
ATOM     20  C   UNL     1       5.010   4.251   0.238  1.00  0.00     0.260 C 
ATOM     21  N   UNL     1       6.243   4.857   0.473  1.00  0.00    -0.340 N 
ATOM     22  C   UNL     1       7.260   5.214  -0.482  1.00  0.00     0.119 C 
ATOM     23  C   UNL     1       6.593   5.196   1.879  1.00  0.00     0.119 C 
ATOM     24  C   UNL     1       8.600   4.952   0.243  1.00  0.00     0.022 C 
ATOM     25  C   UNL     1       7.558   4.100   2.345  1.00  0.00     0.022 C 
ATOM     26  C   UNL     1       8.388   3.726   1.110  1.00  0.00     0.004 C 
ATOM     27  O   UNL     1       4.305   3.987   1.301  1.00  0.00    -0.271 OA
ENDBRANCH  19  20
ENDBRANCH  18  19
ENDBRANCH   5  18
TORSDOF 5
ENDMDL
