MODEL 1
REMARK VINA RESULT:      -2.8      0.000      0.000
REMARK SMILES Cc1sc2nc(CSc3nnc(-c4ccc5c(c4)OCO5)o3)cn2c1C
REMARK SMILES IDX 7 1 6 2 2 3 3 4 25 5 4 6 24 7 5 8 23 9 1 10 26 11 8 12 9 13
REMARK SMILES IDX 10 14 22 15 11 16 12 17 13 18 14 19 18 20 15 21 17 22 16 23
REMARK SMILES IDX 19 24 21 25 20 26
REMARK H PARENT
ROOT
ATOM      1  C   UNL     1       3.466   0.334  -0.670  1.00  0.00     0.137 C 
ENDROOT
BRANCH   1   2
ATOM      2  C   UNL     1       4.784   0.258  -0.028  1.00  0.00     0.071 A 
ATOM      3  C   UNL     1       8.589   0.030   2.295  1.00  0.00     0.025 A 
ATOM      4  S   UNL     1       8.726   0.002   0.528  1.00  0.00    -0.101 S 
ATOM      5  C   UNL     1       7.226   0.124   2.554  1.00  0.00     0.035 A 
ATOM      6  C   UNL     1       6.894   0.122   0.307  1.00  0.00     0.194 A 
ATOM      7  N   UNL     1       6.408   0.167   1.532  1.00  0.00    -0.294 N 
ATOM      8  N   UNL     1       5.963   0.173  -0.663  1.00  0.00    -0.223 NA
ATOM      9  C   UNL     1       5.045   0.255   1.324  1.00  0.00     0.118 A 
ATOM     10  C   UNL     1       9.724  -0.037   3.251  1.00  0.00     0.058 C 
ATOM     11  C   UNL     1       6.796   0.165   4.021  1.00  0.00     0.066 C 
ENDBRANCH   1   2
BRANCH   1  12
ATOM     12  S   UNL     1       3.320   1.770  -1.760  1.00  0.00    -0.059 SA
BRANCH  12  13
ATOM     13  C   UNL     1       4.432   3.065  -1.246  1.00  0.00     0.277 A 
ATOM     14  N   UNL     1       4.635   4.286  -1.757  1.00  0.00    -0.101 NA
ATOM     15  O   UNL     1       5.241   2.951  -0.225  1.00  0.00    -0.411 OA
ATOM     16  N   UNL     1       5.571   4.878  -1.019  1.00  0.00    -0.107 NA
ATOM     17  C   UNL     1       5.953   4.037  -0.052  1.00  0.00     0.248 A 
BRANCH  17  18
ATOM     18  C   UNL     1       6.945   4.251   0.984  1.00  0.00     0.043 A 
ATOM     19  C   UNL     1       8.201   4.759   0.732  1.00  0.00     0.018 A 
ATOM     20  C   UNL     1       6.651   3.945   2.298  1.00  0.00     0.064 A 
ATOM     21  C   UNL     1       9.146   4.965   1.717  1.00  0.00     0.051 A 
ATOM     22  C   UNL     1       7.594   4.149   3.291  1.00  0.00     0.166 A 
ATOM     23  C   UNL     1       8.843   4.656   3.026  1.00  0.00     0.165 A 
ATOM     24  O   UNL     1       7.500   3.908   4.674  1.00  0.00    -0.454 OA
ATOM     25  O   UNL     1       9.533   4.732   4.246  1.00  0.00    -0.454 OA
ATOM     26  C   UNL     1       8.811   3.950   5.207  1.00  0.00     0.468 C 
ENDBRANCH  17  18
ENDBRANCH  12  13
ENDBRANCH   1  12
TORSDOF 4
ENDMDL
MODEL 2
REMARK VINA RESULT:      -2.2      2.464      5.399
REMARK SMILES Cc1sc2nc(CSc3nnc(-c4ccc5c(c4)OCO5)o3)cn2c1C
REMARK SMILES IDX 7 1 6 2 2 3 3 4 25 5 4 6 24 7 5 8 23 9 1 10 26 11 8 12 9 13
REMARK SMILES IDX 10 14 22 15 11 16 12 17 13 18 14 19 18 20 15 21 17 22 16 23
REMARK SMILES IDX 19 24 21 25 20 26
REMARK H PARENT
ROOT
ATOM      1  C   UNL     1       9.659   2.004   4.871  1.00  0.00     0.137 C 
ENDROOT
BRANCH   1   2
ATOM      2  C   UNL     1       8.651   1.328   4.044  1.00  0.00     0.071 A 
ATOM      3  C   UNL     1       5.845  -0.660   1.199  1.00  0.00     0.025 A 
ATOM      4  S   UNL     1       5.369  -0.632   2.905  1.00  0.00    -0.101 S 
ATOM      5  C   UNL     1       7.070  -0.005   1.150  1.00  0.00     0.035 A 
ATOM      6  C   UNL     1       6.902   0.277   3.398  1.00  0.00     0.194 A 
ATOM      7  N   UNL     1       7.568   0.450   2.273  1.00  0.00    -0.294 N 
ATOM      8  N   UNL     1       7.508   0.784   4.487  1.00  0.00    -0.223 NA
ATOM      9  C   UNL     1       8.700   1.129   2.682  1.00  0.00     0.118 A 
ATOM     10  C   UNL     1       5.061  -1.267   0.093  1.00  0.00     0.058 C 
ATOM     11  C   UNL     1       7.739   0.125  -0.220  1.00  0.00     0.066 C 
ENDBRANCH   1   2
BRANCH   1  12
ATOM     12  S   UNL     1       9.218   3.725   5.211  1.00  0.00    -0.059 SA
BRANCH  12  13
ATOM     13  C   UNL     1       7.844   4.235   4.197  1.00  0.00     0.277 A 
ATOM     14  N   UNL     1       6.859   5.106   4.448  1.00  0.00    -0.101 NA
ATOM     15  O   UNL     1       7.632   3.770   2.993  1.00  0.00    -0.411 OA
ATOM     16  N   UNL     1       6.074   5.142   3.375  1.00  0.00    -0.107 NA
ATOM     17  C   UNL     1       6.560   4.300   2.456  1.00  0.00     0.248 A 
BRANCH  17  18
ATOM     18  C   UNL     1       6.036   4.010   1.135  1.00  0.00     0.043 A 
ATOM     19  C   UNL     1       6.202   4.852   0.057  1.00  0.00     0.018 A 
ATOM     20  C   UNL     1       5.334   2.843   0.909  1.00  0.00     0.064 A 
ATOM     21  C   UNL     1       5.707   4.578  -1.202  1.00  0.00     0.051 A 
ATOM     22  C   UNL     1       4.834   2.561  -0.350  1.00  0.00     0.166 A 
ATOM     23  C   UNL     1       5.007   3.410  -1.418  1.00  0.00     0.165 A 
ATOM     24  O   UNL     1       4.101   1.443  -0.791  1.00  0.00    -0.454 OA
ATOM     25  O   UNL     1       4.381   2.822  -2.528  1.00  0.00    -0.454 OA
ATOM     26  C   UNL     1       3.535   1.769  -2.046  1.00  0.00     0.468 C 
ENDBRANCH  17  18
ENDBRANCH  12  13
ENDBRANCH   1  12
TORSDOF 4
ENDMDL
MODEL 3
REMARK VINA RESULT:      -1.0      3.008      5.314
REMARK SMILES Cc1sc2nc(CSc3nnc(-c4ccc5c(c4)OCO5)o3)cn2c1C
REMARK SMILES IDX 7 1 6 2 2 3 3 4 25 5 4 6 24 7 5 8 23 9 1 10 26 11 8 12 9 13
REMARK SMILES IDX 10 14 22 15 11 16 12 17 13 18 14 19 18 20 15 21 17 22 16 23
REMARK SMILES IDX 19 24 21 25 20 26
REMARK H PARENT
ROOT
ATOM      1  C   UNL     1       9.356  -1.679   1.823  1.00  0.00     0.137 C 
ENDROOT
BRANCH   1   2
ATOM      2  C   UNL     1       9.274  -0.268   1.425  1.00  0.00     0.071 A 
ATOM      3  C   UNL     1       8.839   4.094   0.587  1.00  0.00     0.025 A 
ATOM      4  S   UNL     1       9.643   3.117  -0.653  1.00  0.00    -0.101 S 
ATOM      5  C   UNL     1       8.510   3.201   1.601  1.00  0.00     0.035 A 
ATOM      6  C   UNL     1       9.455   1.566   0.337  1.00  0.00     0.194 A 
ATOM      7  N   UNL     1       8.835   1.943   1.439  1.00  0.00    -0.294 N 
ATOM      8  N   UNL     1       9.740   0.253   0.280  1.00  0.00    -0.223 NA
ATOM      9  C   UNL     1       8.714   0.763   2.147  1.00  0.00     0.118 A 
ATOM     10  C   UNL     1       8.593   5.557   0.510  1.00  0.00     0.058 C 
ATOM     11  C   UNL     1       7.794   3.769   2.828  1.00  0.00     0.066 C 
ENDBRANCH   1   2
BRANCH   1  12
ATOM     12  S   UNL     1       7.756  -2.515   1.707  1.00  0.00    -0.059 SA
BRANCH  12  13
ATOM     13  C   UNL     1       6.431  -1.327   1.614  1.00  0.00     0.277 A 
ATOM     14  N   UNL     1       5.343  -1.182   2.380  1.00  0.00    -0.101 NA
ATOM     15  O   UNL     1       6.374  -0.388   0.704  1.00  0.00    -0.411 OA
ATOM     16  N   UNL     1       4.655  -0.147   1.905  1.00  0.00    -0.107 NA
ATOM     17  C   UNL     1       5.304   0.355   0.849  1.00  0.00     0.248 A 
BRANCH  17  18
ATOM     18  C   UNL     1       4.930   1.482   0.016  1.00  0.00     0.043 A 
ATOM     19  C   UNL     1       4.133   1.361  -1.102  1.00  0.00     0.018 A 
ATOM     20  C   UNL     1       5.373   2.752   0.329  1.00  0.00     0.064 A 
ATOM     21  C   UNL     1       3.774   2.432  -1.895  1.00  0.00     0.051 A 
ATOM     22  C   UNL     1       5.017   3.830  -0.462  1.00  0.00     0.166 A 
ATOM     23  C   UNL     1       4.222   3.696  -1.575  1.00  0.00     0.165 A 
ATOM     24  O   UNL     1       5.356   5.190  -0.323  1.00  0.00    -0.454 OA
ATOM     25  O   UNL     1       4.062   4.974  -2.133  1.00  0.00    -0.454 OA
ATOM     26  C   UNL     1       5.045   5.836  -1.543  1.00  0.00     0.468 C 
ENDBRANCH  17  18
ENDBRANCH  12  13
ENDBRANCH   1  12
TORSDOF 4
ENDMDL
MODEL 4
REMARK VINA RESULT:      -0.7      1.162      1.575
REMARK SMILES Cc1sc2nc(CSc3nnc(-c4ccc5c(c4)OCO5)o3)cn2c1C
REMARK SMILES IDX 7 1 6 2 2 3 3 4 25 5 4 6 24 7 5 8 23 9 1 10 26 11 8 12 9 13
REMARK SMILES IDX 10 14 22 15 11 16 12 17 13 18 14 19 18 20 15 21 17 22 16 23
REMARK SMILES IDX 19 24 21 25 20 26
REMARK H PARENT
ROOT
ATOM      1  C   UNL     1       3.254  -0.829  -0.305  1.00  0.00     0.137 C 
ENDROOT
BRANCH   1   2
ATOM      2  C   UNL     1       4.592  -0.592   0.250  1.00  0.00     0.071 A 
ATOM      3  C   UNL     1       8.472   0.195   2.311  1.00  0.00     0.025 A 
ATOM      4  S   UNL     1       8.551  -0.236   0.594  1.00  0.00    -0.101 S 
ATOM      5  C   UNL     1       7.119   0.185   2.629  1.00  0.00     0.035 A 
ATOM      6  C   UNL     1       6.712  -0.392   0.470  1.00  0.00     0.194 A 
ATOM      7  N   UNL     1       6.267  -0.114   1.680  1.00  0.00    -0.294 N 
ATOM      8  N   UNL     1       5.749  -0.685  -0.423  1.00  0.00    -0.223 NA
ATOM      9  C   UNL     1       4.898  -0.241   1.546  1.00  0.00     0.118 A 
ATOM     10  C   UNL     1       9.638   0.494   3.181  1.00  0.00     0.058 C 
ATOM     11  C   UNL     1       6.738   0.523   4.072  1.00  0.00     0.066 C 
ENDBRANCH   1   2
BRANCH   1  12
ATOM     12  S   UNL     1       2.761   0.464  -1.471  1.00  0.00    -0.059 SA
BRANCH  12  13
ATOM     13  C   UNL     1       3.776   1.914  -1.268  1.00  0.00     0.277 A 
ATOM     14  N   UNL     1       4.078   2.888  -2.136  1.00  0.00    -0.101 NA
ATOM     15  O   UNL     1       4.393   2.207  -0.152  1.00  0.00    -0.411 OA
ATOM     16  N   UNL     1       4.875   3.750  -1.509  1.00  0.00    -0.107 NA
ATOM     17  C   UNL     1       5.074   3.321  -0.258  1.00  0.00     0.248 A 
BRANCH  17  18
ATOM     18  C   UNL     1       5.870   3.936   0.787  1.00  0.00     0.043 A 
ATOM     19  C   UNL     1       5.329   4.714   1.788  1.00  0.00     0.018 A 
ATOM     20  C   UNL     1       7.238   3.752   0.815  1.00  0.00     0.064 A 
ATOM     21  C   UNL     1       6.084   5.299   2.785  1.00  0.00     0.051 A 
ATOM     22  C   UNL     1       8.001   4.334   1.811  1.00  0.00     0.166 A 
ATOM     23  C   UNL     1       7.449   5.109   2.804  1.00  0.00     0.165 A 
ATOM     24  O   UNL     1       9.392   4.274   2.022  1.00  0.00    -0.454 OA
ATOM     25  O   UNL     1       8.496   5.534   3.636  1.00  0.00    -0.454 OA
ATOM     26  C   UNL     1       9.730   5.290   2.948  1.00  0.00     0.468 C 
ENDBRANCH  17  18
ENDBRANCH  12  13
ENDBRANCH   1  12
TORSDOF 4
ENDMDL
MODEL 5
REMARK VINA RESULT:      -0.4      2.575      6.886
REMARK SMILES Cc1sc2nc(CSc3nnc(-c4ccc5c(c4)OCO5)o3)cn2c1C
REMARK SMILES IDX 7 1 6 2 2 3 3 4 25 5 4 6 24 7 5 8 23 9 1 10 26 11 8 12 9 13
REMARK SMILES IDX 10 14 22 15 11 16 12 17 13 18 14 19 18 20 15 21 17 22 16 23
REMARK SMILES IDX 19 24 21 25 20 26
REMARK H PARENT
ROOT
ATOM      1  C   UNL     1       7.697   5.205   4.560  1.00  0.00     0.137 C 
ENDROOT
BRANCH   1   2
ATOM      2  C   UNL     1       6.842   5.326   3.373  1.00  0.00     0.071 A 
ATOM      3  C   UNL     1       4.598   5.707  -0.467  1.00  0.00     0.025 A 
ATOM      4  S   UNL     1       3.634   5.549   1.012  1.00  0.00    -0.101 S 
ATOM      5  C   UNL     1       5.922   5.674  -0.046  1.00  0.00     0.035 A 
ATOM      6  C   UNL     1       5.143   5.449   2.077  1.00  0.00     0.194 A 
ATOM      7  N   UNL     1       6.155   5.543   1.236  1.00  0.00    -0.294 N 
ATOM      8  N   UNL     1       5.501   5.318   3.367  1.00  0.00    -0.223 NA
ATOM      9  C   UNL     1       7.257   5.465   2.066  1.00  0.00     0.118 A 
ATOM     10  C   UNL     1       4.054   5.845  -1.842  1.00  0.00     0.058 C 
ATOM     11  C   UNL     1       7.001   5.790  -1.124  1.00  0.00     0.066 C 
ENDBRANCH   1   2
BRANCH   1  12
ATOM     12  S   UNL     1       8.256   3.505   4.826  1.00  0.00    -0.059 SA
BRANCH  12  13
ATOM     13  C   UNL     1       7.898   2.495   3.402  1.00  0.00     0.277 A 
ATOM     14  N   UNL     1       8.710   1.743   2.648  1.00  0.00    -0.101 NA
ATOM     15  O   UNL     1       6.698   2.370   2.895  1.00  0.00    -0.411 OA
ATOM     16  N   UNL     1       7.965   1.180   1.699  1.00  0.00    -0.107 NA
ATOM     17  C   UNL     1       6.697   1.575   1.854  1.00  0.00     0.248 A 
BRANCH  17  18
ATOM     18  C   UNL     1       5.540   1.217   1.056  1.00  0.00     0.043 A 
ATOM     19  C   UNL     1       4.644   0.237   1.424  1.00  0.00     0.018 A 
ATOM     20  C   UNL     1       5.291   1.872  -0.134  1.00  0.00     0.064 A 
ATOM     21  C   UNL     1       3.541  -0.104   0.668  1.00  0.00     0.051 A 
ATOM     22  C   UNL     1       4.186   1.535  -0.898  1.00  0.00     0.166 A 
ATOM     23  C   UNL     1       3.300   0.555  -0.520  1.00  0.00     0.165 A 
ATOM     24  O   UNL     1       3.754   2.070  -2.126  1.00  0.00    -0.454 OA
ATOM     25  O   UNL     1       2.312   0.476  -1.512  1.00  0.00    -0.454 OA
ATOM     26  C   UNL     1       2.790   1.184  -2.664  1.00  0.00     0.468 C 
ENDBRANCH  17  18
ENDBRANCH  12  13
ENDBRANCH   1  12
TORSDOF 4
ENDMDL
MODEL 6
REMARK VINA RESULT:      -0.2      2.428      6.578
REMARK SMILES Cc1sc2nc(CSc3nnc(-c4ccc5c(c4)OCO5)o3)cn2c1C
REMARK SMILES IDX 7 1 6 2 2 3 3 4 25 5 4 6 24 7 5 8 23 9 1 10 26 11 8 12 9 13
REMARK SMILES IDX 10 14 22 15 11 16 12 17 13 18 14 19 18 20 15 21 17 22 16 23
REMARK SMILES IDX 19 24 21 25 20 26
REMARK H PARENT
ROOT
ATOM      1  C   UNL     1       9.716   3.105   4.121  1.00  0.00     0.137 C 
ENDROOT
BRANCH   1   2
ATOM      2  C   UNL     1       8.566   3.432   3.270  1.00  0.00     0.071 A 
ATOM      3  C   UNL     1       5.323   4.369   0.349  1.00  0.00     0.025 A 
ATOM      4  S   UNL     1       4.880   4.368   2.065  1.00  0.00    -0.101 S 
ATOM      5  C   UNL     1       6.677   4.055   0.321  1.00  0.00     0.035 A 
ATOM      6  C   UNL     1       6.599   3.934   2.589  1.00  0.00     0.194 A 
ATOM      7  N   UNL     1       7.282   3.843   1.463  1.00  0.00    -0.294 N 
ATOM      8  N   UNL     1       7.322   3.696   3.698  1.00  0.00    -0.223 NA
ATOM      9  C   UNL     1       8.554   3.519   1.895  1.00  0.00     0.118 A 
ATOM     10  C   UNL     1       4.402   4.653  -0.781  1.00  0.00     0.058 C 
ATOM     11  C   UNL     1       7.348   3.980  -1.051  1.00  0.00     0.066 C 
ENDBRANCH   1   2
BRANCH   1  12
ATOM     12  S   UNL     1       9.737   1.360   4.599  1.00  0.00    -0.059 SA
BRANCH  12  13
ATOM     13  C   UNL     1       8.412   0.474   3.804  1.00  0.00     0.277 A 
ATOM     14  N   UNL     1       8.044  -0.809   3.907  1.00  0.00    -0.101 NA
ATOM     15  O   UNL     1       7.584   1.031   2.957  1.00  0.00    -0.411 OA
ATOM     16  N   UNL     1       6.992  -0.988   3.111  1.00  0.00    -0.107 NA
ATOM     17  C   UNL     1       6.701   0.171   2.512  1.00  0.00     0.248 A 
BRANCH  17  18
ATOM     18  C   UNL     1       5.640   0.453   1.564  1.00  0.00     0.043 A 
ATOM     19  C   UNL     1       4.305   0.265   1.849  1.00  0.00     0.018 A 
ATOM     20  C   UNL     1       5.945   0.935   0.306  1.00  0.00     0.064 A 
ATOM     21  C   UNL     1       3.293   0.534   0.950  1.00  0.00     0.051 A 
ATOM     22  C   UNL     1       4.936   1.208  -0.600  1.00  0.00     0.166 A 
ATOM     23  C   UNL     1       3.607   1.016  -0.303  1.00  0.00     0.165 A 
ATOM     24  O   UNL     1       5.026   1.699  -1.917  1.00  0.00    -0.454 OA
ATOM     25  O   UNL     1       2.866   1.388  -1.435  1.00  0.00    -0.454 OA
ATOM     26  C   UNL     1       3.774   1.487  -2.541  1.00  0.00     0.468 C 
ENDBRANCH  17  18
ENDBRANCH  12  13
ENDBRANCH   1  12
TORSDOF 4
ENDMDL
MODEL 7
REMARK VINA RESULT:      -0.2      1.050      1.060
REMARK SMILES Cc1sc2nc(CSc3nnc(-c4ccc5c(c4)OCO5)o3)cn2c1C
REMARK SMILES IDX 7 1 6 2 2 3 3 4 25 5 4 6 24 7 5 8 23 9 1 10 26 11 8 12 9 13
REMARK SMILES IDX 10 14 22 15 11 16 12 17 13 18 14 19 18 20 15 21 17 22 16 23
REMARK SMILES IDX 19 24 21 25 20 26
REMARK H PARENT
ROOT
ATOM      1  C   UNL     1       3.538  -0.923  -0.382  1.00  0.00     0.137 C 
ENDROOT
BRANCH   1   2
ATOM      2  C   UNL     1       4.840  -0.900   0.295  1.00  0.00     0.071 A 
ATOM      3  C   UNL     1       8.587  -0.760   2.716  1.00  0.00     0.025 A 
ATOM      4  S   UNL     1       8.765  -1.091   0.985  1.00  0.00    -0.101 S 
ATOM      5  C   UNL     1       7.221  -0.611   2.922  1.00  0.00     0.035 A 
ATOM      6  C   UNL     1       6.940  -0.995   0.701  1.00  0.00     0.194 A 
ATOM      7  N   UNL     1       6.427  -0.736   1.888  1.00  0.00    -0.294 N 
ATOM      8  N   UNL     1       6.032  -1.103  -0.286  1.00  0.00    -0.223 NA
ATOM      9  C   UNL     1       5.070  -0.673   1.634  1.00  0.00     0.118 A 
ATOM     10  C   UNL     1       9.699  -0.672   3.698  1.00  0.00     0.058 C 
ATOM     11  C   UNL     1       6.757  -0.315   4.350  1.00  0.00     0.066 C 
ENDBRANCH   1   2
BRANCH   1  12
ATOM     12  S   UNL     1       3.392   0.386  -1.623  1.00  0.00    -0.059 SA
BRANCH  12  13
ATOM     13  C   UNL     1       4.107   1.904  -1.023  1.00  0.00     0.277 A 
ATOM     14  N   UNL     1       3.729   3.174  -1.214  1.00  0.00    -0.101 NA
ATOM     15  O   UNL     1       5.173   1.943  -0.265  1.00  0.00    -0.411 OA
ATOM     16  N   UNL     1       4.588   3.950  -0.558  1.00  0.00    -0.107 NA
ATOM     17  C   UNL     1       5.499   3.175   0.041  1.00  0.00     0.248 A 
BRANCH  17  18
ATOM     18  C   UNL     1       6.623   3.580   0.864  1.00  0.00     0.043 A 
ATOM     19  C   UNL     1       7.554   4.512   0.461  1.00  0.00     0.018 A 
ATOM     20  C   UNL     1       6.799   3.027   2.117  1.00  0.00     0.064 A 
ATOM     21  C   UNL     1       8.624   4.901   1.242  1.00  0.00     0.051 A 
ATOM     22  C   UNL     1       7.869   3.412   2.906  1.00  0.00     0.166 A 
ATOM     23  C   UNL     1       8.791   4.343   2.492  1.00  0.00     0.165 A 
ATOM     24  O   UNL     1       8.228   2.979   4.196  1.00  0.00    -0.454 OA
ATOM     25  O   UNL     1       9.729   4.494   3.525  1.00  0.00    -0.454 OA
ATOM     26  C   UNL     1       9.560   3.397   4.434  1.00  0.00     0.468 C 
ENDBRANCH  17  18
ENDBRANCH  12  13
ENDBRANCH   1  12
TORSDOF 4
ENDMDL
