MODEL 1
REMARK VINA RESULT:       4.4      0.000      0.000
REMARK SMILES CC(=O)Nc1ccc(S(=O)(=O)Nc2ccc(NCc3ccc(CCNCCc4ccccc4)cc3)c(N)c2)cc1
REMARK SMILES IDX 18 1 17 2 16 4 13 5 14 6 38 7 15 8 36 9 12 10 9 12 10 13
REMARK SMILES IDX 11 14 8 15 5 16 6 17 40 18 7 19 39 20 4 21 2 22 1 23 3 24
REMARK SMILES IDX 37 26 19 29 20 30 35 31 21 32 34 33 22 34 23 35 24 36 25 37
REMARK SMILES IDX 26 39 27 40 28 41 29 42 33 43 30 44 32 45 31 46
REMARK H PARENT 17 3 12 11 4 25 37 27 37 28 25 38
ROOT
ATOM      1  C   UNL     1       3.089   1.516  -2.394  1.00  0.00     0.148 C 
ENDROOT
BRANCH   1   2
ATOM      2  N   UNL     1       2.706   0.260  -1.738  1.00  0.00    -0.379 N 
ATOM      3  H   UNL     1       1.921  -0.329  -2.084  1.00  0.00     0.160 HD
BRANCH   2   4
ATOM      4  C   UNL     1       3.437  -0.177  -0.573  1.00  0.00     0.058 A 
ATOM      5  C   UNL     1       4.870  -1.081   1.615  1.00  0.00     0.051 A 
ATOM      6  C   UNL     1       5.085  -1.688   0.383  1.00  0.00     0.029 A 
ATOM      7  C   UNL     1       3.951  -0.037   1.746  1.00  0.00     0.054 A 
ATOM      8  C   UNL     1       4.349  -1.205  -0.679  1.00  0.00     0.030 A 
ATOM      9  C   UNL     1       3.227   0.425   0.659  1.00  0.00     0.057 A 
BRANCH   5  10
ATOM     10  N   UNL     1       5.585  -1.508   2.770  1.00  0.00    -0.280 N 
ATOM     11  H   UNL     1       5.039  -2.146   3.422  1.00  0.00     0.180 HD
BRANCH  10  12
ATOM     12  S   UNL     1       7.208  -1.045   3.102  1.00  0.00     0.261 S 
ATOM     13  O   UNL     1       8.001  -2.301   3.365  1.00  0.00    -0.201 OA
ATOM     14  O   UNL     1       7.278  -0.128   4.289  1.00  0.00    -0.201 OA
BRANCH  12  15
ATOM     15  C   UNL     1       7.833  -0.290   1.656  1.00  0.00     0.087 A 
ATOM     16  C   UNL     1       8.971   0.910  -0.649  1.00  0.00     0.041 A 
ATOM     17  C   UNL     1       9.740   0.412   0.371  1.00  0.00     0.027 A 
ATOM     18  C   UNL     1       7.590   0.786  -0.476  1.00  0.00     0.027 A 
ATOM     19  C   UNL     1       9.197  -0.180   1.511  1.00  0.00     0.024 A 
ATOM     20  C   UNL     1       7.048   0.204   0.644  1.00  0.00     0.024 A 
BRANCH  16  21
ATOM     21  N   UNL     1       9.436   1.513  -1.821  1.00  0.00    -0.326 N 
ATOM     22  C   UNL     1       8.657   1.968  -2.908  1.00  0.00     0.221 C 
ATOM     23  C   UNL     1       9.273   2.605  -4.121  1.00  0.00     0.114 C 
ATOM     24  O   UNL     1       7.412   1.865  -2.918  1.00  0.00    -0.275 OA
ATOM     25  H   UNL     1      10.481   1.656  -1.929  1.00  0.00     0.169 HD
ENDBRANCH  16  21
ENDBRANCH  12  15
ENDBRANCH  10  12
ENDBRANCH   5  10
BRANCH   9  26
ATOM     26  N   UNL     1       2.293   1.482   0.783  1.00  0.00    -0.397 N 
ATOM     27  H   UNL     1       2.676   2.471   0.709  1.00  0.00     0.156 HD
ATOM     28  H   UNL     1       1.306   1.253   0.937  1.00  0.00     0.156 HD
ENDBRANCH   9  26
ENDBRANCH   2   4
ENDBRANCH   1   2
BRANCH   1  29
ATOM     29  C   UNL     1       3.892   2.395  -1.548  1.00  0.00    -0.029 A 
ATOM     30  C   UNL     1       5.205   2.160  -1.180  1.00  0.00     0.006 A 
ATOM     31  C   UNL     1       3.297   3.561  -1.075  1.00  0.00     0.006 A 
ATOM     32  C   UNL     1       5.891   3.068  -0.365  1.00  0.00     0.004 A 
ATOM     33  C   UNL     1       3.962   4.462  -0.273  1.00  0.00     0.004 A 
ATOM     34  C   UNL     1       5.276   4.214   0.087  1.00  0.00    -0.047 A 
BRANCH  34  35
ATOM     35  C   UNL     1       5.949   5.220   0.954  1.00  0.00     0.051 C 
BRANCH  35  36
ATOM     36  C   UNL     1       6.402   4.614   2.251  1.00  0.00     0.085 C 
BRANCH  36  37
ATOM     37  N   UNL     1       5.319   4.651   3.195  1.00  0.00    -0.316 NA
ATOM     38  H   UNL     1       4.425   4.758   2.630  1.00  0.00     0.122 HD
BRANCH  37  39
ATOM     39  C   UNL     1       5.379   5.842   4.015  1.00  0.00     0.085 C 
BRANCH  39  40
ATOM     40  C   UNL     1       6.793   5.841   4.616  1.00  0.00     0.051 C 
BRANCH  40  41
ATOM     41  C   UNL     1       7.501   4.730   3.927  1.00  0.00    -0.047 A 
ATOM     42  C   UNL     1       8.284   5.058   2.830  1.00  0.00     0.004 A 
ATOM     43  C   UNL     1       7.415   3.414   4.323  1.00  0.00     0.004 A 
ATOM     44  C   UNL     1       8.949   4.040   2.178  1.00  0.00     0.000 A 
ATOM     45  C   UNL     1       8.091   2.396   3.654  1.00  0.00     0.000 A 
ATOM     46  C   UNL     1       8.882   2.726   2.546  1.00  0.00     0.000 A 
ENDBRANCH  40  41
ENDBRANCH  39  40
ENDBRANCH  37  39
ENDBRANCH  36  37
ENDBRANCH  35  36
ENDBRANCH  34  35
ENDBRANCH   1  29
TORSDOF 14
ENDMDL
MODEL 2
REMARK VINA RESULT:       5.5      2.288      5.194
REMARK SMILES CC(=O)Nc1ccc(S(=O)(=O)Nc2ccc(NCc3ccc(CCNCCc4ccccc4)cc3)c(N)c2)cc1
REMARK SMILES IDX 18 1 17 2 16 4 13 5 14 6 38 7 15 8 36 9 12 10 9 12 10 13
REMARK SMILES IDX 11 14 8 15 5 16 6 17 40 18 7 19 39 20 4 21 2 22 1 23 3 24
REMARK SMILES IDX 37 26 19 29 20 30 35 31 21 32 34 33 22 34 23 35 24 36 25 37
REMARK SMILES IDX 26 39 27 40 28 41 29 42 33 43 30 44 32 45 31 46
REMARK H PARENT 17 3 12 11 4 25 37 27 37 28 25 38
ROOT
ATOM      1  C   UNL     1       7.047   4.763   3.414  1.00  0.00     0.148 C 
ENDROOT
BRANCH   1   2
ATOM      2  N   UNL     1       6.960   3.574   4.271  1.00  0.00    -0.379 N 
ATOM      3  H   UNL     1       6.475   3.588   5.191  1.00  0.00     0.160 HD
BRANCH   2   4
ATOM      4  C   UNL     1       7.566   2.342   3.827  1.00  0.00     0.058 A 
ATOM      5  C   UNL     1       8.665  -0.064   3.013  1.00  0.00     0.051 A 
ATOM      6  C   UNL     1       7.391  -0.070   3.572  1.00  0.00     0.029 A 
ATOM      7  C   UNL     1       9.374   1.130   2.866  1.00  0.00     0.054 A 
ATOM      8  C   UNL     1       6.884   1.152   3.962  1.00  0.00     0.030 A 
ATOM      9  C   UNL     1       8.837   2.341   3.270  1.00  0.00     0.057 A 
BRANCH   5  10
ATOM     10  N   UNL     1       9.271  -1.276   2.576  1.00  0.00    -0.280 N 
ATOM     11  H   UNL     1      10.037  -1.646   3.214  1.00  0.00     0.180 HD
BRANCH  10  12
ATOM     12  S   UNL     1       8.814  -2.096   1.134  1.00  0.00     0.261 S 
ATOM     13  O   UNL     1       8.862  -3.578   1.412  1.00  0.00    -0.201 OA
ATOM     14  O   UNL     1       9.734  -1.749  -0.001  1.00  0.00    -0.201 OA
BRANCH  12  15
ATOM     15  C   UNL     1       7.160  -1.652   0.793  1.00  0.00     0.087 A 
ATOM     16  C   UNL     1       4.433  -1.017   0.333  1.00  0.00     0.041 A 
ATOM     17  C   UNL     1       4.819  -1.976   1.234  1.00  0.00     0.027 A 
ATOM     18  C   UNL     1       5.474  -0.373  -0.342  1.00  0.00     0.027 A 
ATOM     19  C   UNL     1       6.153  -2.301   1.472  1.00  0.00     0.024 A 
ATOM     20  C   UNL     1       6.792  -0.688  -0.112  1.00  0.00     0.024 A 
BRANCH  16  21
ATOM     21  N   UNL     1       3.122  -0.631   0.041  1.00  0.00    -0.326 N 
ATOM     22  C   UNL     1       2.597   0.680   0.067  1.00  0.00     0.221 C 
ATOM     23  C   UNL     1       1.163   0.973  -0.270  1.00  0.00     0.114 C 
ATOM     24  O   UNL     1       3.299   1.668   0.372  1.00  0.00    -0.275 OA
ATOM     25  H   UNL     1       2.429  -1.385  -0.233  1.00  0.00     0.169 HD
ENDBRANCH  16  21
ENDBRANCH  12  15
ENDBRANCH  10  12
ENDBRANCH   5  10
BRANCH   9  26
ATOM     26  N   UNL     1       9.550   3.556   3.125  1.00  0.00    -0.397 N 
ATOM     27  H   UNL     1       9.050   4.445   3.424  1.00  0.00     0.156 HD
ATOM     28  H   UNL     1      10.501   3.528   2.744  1.00  0.00     0.156 HD
ENDBRANCH   9  26
ENDBRANCH   2   4
ENDBRANCH   1   2
BRANCH   1  29
ATOM     29  C   UNL     1       5.841   5.004   2.626  1.00  0.00    -0.029 A 
ATOM     30  C   UNL     1       4.547   4.856   3.092  1.00  0.00     0.006 A 
ATOM     31  C   UNL     1       6.000   5.417   1.306  1.00  0.00     0.006 A 
ATOM     32  C   UNL     1       3.455   5.115   2.256  1.00  0.00     0.004 A 
ATOM     33  C   UNL     1       4.932   5.675   0.475  1.00  0.00     0.004 A 
ATOM     34  C   UNL     1       3.643   5.523   0.955  1.00  0.00    -0.047 A 
BRANCH  34  35
ATOM     35  C   UNL     1       2.525   5.816   0.016  1.00  0.00     0.051 C 
BRANCH  35  36
ATOM     36  C   UNL     1       2.950   5.650  -1.415  1.00  0.00     0.085 C 
BRANCH  36  37
ATOM     37  N   UNL     1       3.578   4.369  -1.577  1.00  0.00    -0.316 NA
ATOM     38  H   UNL     1       3.608   3.919  -0.614  1.00  0.00     0.122 HD
BRANCH  37  39
ATOM     39  C   UNL     1       4.967   4.510  -1.958  1.00  0.00     0.085 C 
BRANCH  39  40
ATOM     40  C   UNL     1       5.672   3.284  -1.358  1.00  0.00     0.051 C 
BRANCH  40  41
ATOM     41  C   UNL     1       7.080   3.713  -1.153  1.00  0.00    -0.047 A 
ATOM     42  C   UNL     1       7.308   5.062  -0.930  1.00  0.00     0.004 A 
ATOM     43  C   UNL     1       8.149   2.845  -1.176  1.00  0.00     0.004 A 
ATOM     44  C   UNL     1       8.610   5.480  -0.739  1.00  0.00     0.000 A 
ATOM     45  C   UNL     1       9.458   3.281  -0.981  1.00  0.00     0.000 A 
ATOM     46  C   UNL     1       9.689   4.644  -0.757  1.00  0.00     0.000 A 
ENDBRANCH  40  41
ENDBRANCH  39  40
ENDBRANCH  37  39
ENDBRANCH  36  37
ENDBRANCH  35  36
ENDBRANCH  34  35
ENDBRANCH   1  29
TORSDOF 14
ENDMDL
