MODEL 1
REMARK VINA RESULT:       1.5      0.000      0.000
REMARK SMILES CC(C)CC(C)N=c1[nH]c(N(CCO)CCO)nc2c(=NCc3ccccc3)[nH]cnc12
REMARK SMILES IDX 8 1 9 2 10 3 18 4 19 5 20 6 29 7 30 8 31 9 32 10 7 13 5 14
REMARK SMILES IDX 6 15 4 16 2 17 1 18 3 19 11 20 12 21 13 22 14 23 15 25 16 26
REMARK SMILES IDX 17 27 21 29 22 30 23 31 24 32 28 33 25 34 27 35 26 36
REMARK H PARENT 9 11 29 12 14 24 17 28
ROOT
ATOM      1  C   UNL     1       7.778   1.282   1.963  1.00  0.00     0.156 A 
ATOM      2  N   UNL     1       7.066   2.386   2.370  1.00  0.00    -0.309 N 
ATOM      3  C   UNL     1       6.967   3.491   1.631  1.00  0.00     0.205 A 
ATOM      4  N   UNL     1       7.580   3.547   0.445  1.00  0.00    -0.209 NA
ATOM      5  C   UNL     1       8.288   2.525  -0.018  1.00  0.00     0.139 A 
ATOM      6  C   UNL     1       8.915   2.663  -1.283  1.00  0.00     0.155 A 
ATOM      7  N   UNL     1       9.610   1.599  -1.677  1.00  0.00    -0.329 N 
ATOM      8  C   UNL     1       9.739   0.460  -0.966  1.00  0.00     0.199 A 
ATOM      9  N   UNL     1       9.136   0.356   0.227  1.00  0.00    -0.233 NA
ATOM     10  C   UNL     1       8.408   1.373   0.716  1.00  0.00     0.137 A 
ATOM     11  H   UNL     1       6.622   2.272   3.306  1.00  0.00     0.171 HD
ATOM     12  H   UNL     1      10.095   1.622  -2.591  1.00  0.00     0.169 HD
ENDROOT
BRANCH   1  13
ATOM     13  N   UNL     1       7.850   0.314   2.646  1.00  0.00    -0.263 NA
BRANCH  13  14
ATOM     14  C   UNL     1       7.624  -0.745   3.460  1.00  0.00     0.105 C 
ATOM     15  C   UNL     1       8.862  -1.165   4.230  1.00  0.00     0.033 C 
BRANCH  14  16
ATOM     16  C   UNL     1       6.965  -1.882   2.712  1.00  0.00     0.030 C 
BRANCH  16  17
ATOM     17  C   UNL     1       5.685  -1.580   2.038  1.00  0.00    -0.015 C 
ATOM     18  C   UNL     1       5.724  -1.105   0.631  1.00  0.00     0.007 C 
ATOM     19  C   UNL     1       5.027  -0.445   2.848  1.00  0.00     0.007 C 
ENDBRANCH  16  17
ENDBRANCH  14  16
ENDBRANCH  13  14
ENDBRANCH   1  13
BRANCH   3  20
ATOM     20  N   UNL     1       6.197   4.653   2.074  1.00  0.00    -0.338 N 
BRANCH  20  21
ATOM     21  C   UNL     1       4.774   4.526   1.951  1.00  0.00     0.148 C 
BRANCH  21  22
ATOM     22  C   UNL     1       4.234   3.207   1.505  1.00  0.00     0.177 C 
BRANCH  22  23
ATOM     23  O   UNL     1       2.851   3.320   1.422  1.00  0.00    -0.395 OA
ATOM     24  H   UNL     1       2.385   2.996   2.215  1.00  0.00     0.210 HD
ENDBRANCH  22  23
ENDBRANCH  21  22
ENDBRANCH  20  21
BRANCH  20  25
ATOM     25  C   UNL     1       6.904   5.803   2.575  1.00  0.00     0.148 C 
BRANCH  25  26
ATOM     26  C   UNL     1       8.209   5.568   3.246  1.00  0.00     0.177 C 
BRANCH  26  27
ATOM     27  O   UNL     1       9.256   5.646   2.272  1.00  0.00    -0.395 OA
ATOM     28  H   UNL     1       8.760   5.970   1.466  1.00  0.00     0.210 HD
ENDBRANCH  26  27
ENDBRANCH  25  26
ENDBRANCH  20  25
ENDBRANCH   3  20
BRANCH   6  29
ATOM     29  N   UNL     1       8.736   3.747  -1.864  1.00  0.00    -0.262 NA
BRANCH  29  30
ATOM     30  C   UNL     1       8.011   4.914  -1.807  1.00  0.00     0.180 C 
BRANCH  30  31
ATOM     31  C   UNL     1       6.543   4.753  -1.717  1.00  0.00    -0.027 A 
ATOM     32  C   UNL     1       5.784   5.845  -1.296  1.00  0.00     0.005 A 
ATOM     33  C   UNL     1       5.933   3.533  -2.028  1.00  0.00     0.005 A 
ATOM     34  C   UNL     1       4.411   5.760  -1.173  1.00  0.00     0.000 A 
ATOM     35  C   UNL     1       4.562   3.492  -1.892  1.00  0.00     0.000 A 
ATOM     36  C   UNL     1       3.813   4.566  -1.477  1.00  0.00     0.000 A 
ENDBRANCH  30  31
ENDBRANCH  29  30
ENDBRANCH   6  29
TORSDOF 14
ENDMDL
MODEL 2
REMARK VINA RESULT:       2.2      2.196      3.890
REMARK SMILES CC(C)CC(C)N=c1[nH]c(N(CCO)CCO)nc2c(=NCc3ccccc3)[nH]cnc12
REMARK SMILES IDX 8 1 9 2 10 3 18 4 19 5 20 6 29 7 30 8 31 9 32 10 7 13 5 14
REMARK SMILES IDX 6 15 4 16 2 17 1 18 3 19 11 20 12 21 13 22 14 23 15 25 16 26
REMARK SMILES IDX 17 27 21 29 22 30 23 31 24 32 28 33 25 34 27 35 26 36
REMARK H PARENT 9 11 29 12 14 24 17 28
ROOT
ATOM      1  C   UNL     1       6.790   0.375   2.445  1.00  0.00     0.156 A 
ATOM      2  N   UNL     1       6.528   0.184   1.109  1.00  0.00    -0.309 N 
ATOM      3  C   UNL     1       6.480   1.189   0.235  1.00  0.00     0.205 A 
ATOM      4  N   UNL     1       6.691   2.440   0.656  1.00  0.00    -0.209 NA
ATOM      5  C   UNL     1       6.949   2.707   1.929  1.00  0.00     0.139 A 
ATOM      6  C   UNL     1       7.155   4.061   2.302  1.00  0.00     0.155 A 
ATOM      7  N   UNL     1       7.402   4.249   3.595  1.00  0.00    -0.329 N 
ATOM      8  C   UNL     1       7.461   3.266   4.517  1.00  0.00     0.199 A 
ATOM      9  N   UNL     1       7.262   1.995   4.139  1.00  0.00    -0.233 NA
ATOM     10  C   UNL     1       7.006   1.697   2.855  1.00  0.00     0.137 A 
ATOM     11  H   UNL     1       6.367  -0.813   0.855  1.00  0.00     0.171 HD
ATOM     12  H   UNL     1       7.567   5.210   3.945  1.00  0.00     0.169 HD
ENDROOT
BRANCH   1  13
ATOM     13  N   UNL     1       6.821  -0.541   3.200  1.00  0.00    -0.263 NA
BRANCH  13  14
ATOM     14  C   UNL     1       6.592  -1.669   3.914  1.00  0.00     0.105 C 
ATOM     15  C   UNL     1       5.114  -1.925   4.143  1.00  0.00     0.033 C 
BRANCH  14  16
ATOM     16  C   UNL     1       7.412  -1.692   5.184  1.00  0.00     0.030 C 
BRANCH  16  17
ATOM     17  C   UNL     1       8.879  -1.597   5.029  1.00  0.00    -0.015 C 
ATOM     18  C   UNL     1       9.478  -0.257   4.805  1.00  0.00     0.007 C 
ATOM     19  C   UNL     1       9.237  -2.433   3.785  1.00  0.00     0.007 C 
ENDBRANCH  16  17
ENDBRANCH  14  16
ENDBRANCH  13  14
ENDBRANCH   1  13
BRANCH   3  20
ATOM     20  N   UNL     1       6.210   0.969  -1.186  1.00  0.00    -0.338 N 
BRANCH  20  21
ATOM     21  C   UNL     1       4.840   0.700  -1.514  1.00  0.00     0.148 C 
BRANCH  21  22
ATOM     22  C   UNL     1       3.790   1.304  -0.640  1.00  0.00     0.177 C 
BRANCH  22  23
ATOM     23  O   UNL     1       3.193   0.276   0.080  1.00  0.00    -0.395 OA
ATOM     24  H   UNL     1       3.020   0.501   1.012  1.00  0.00     0.210 HD
ENDBRANCH  22  23
ENDBRANCH  21  22
ENDBRANCH  20  21
BRANCH  20  25
ATOM     25  C   UNL     1       7.307   1.027  -2.117  1.00  0.00     0.148 C 
BRANCH  25  26
ATOM     26  C   UNL     1       8.513   1.795  -1.711  1.00  0.00     0.177 C 
BRANCH  26  27
ATOM     27  O   UNL     1       9.678   1.005  -1.971  1.00  0.00    -0.395 OA
ATOM     28  H   UNL     1       9.412   0.515  -2.801  1.00  0.00     0.210 HD
ENDBRANCH  26  27
ENDBRANCH  25  26
ENDBRANCH  20  25
ENDBRANCH   3  20
BRANCH   6  29
ATOM     29  N   UNL     1       7.086   4.895   1.383  1.00  0.00    -0.262 NA
BRANCH  29  30
ATOM     30  C   UNL     1       6.259   5.839   0.821  1.00  0.00     0.180 C 
BRANCH  30  31
ATOM     31  C   UNL     1       5.607   5.447  -0.447  1.00  0.00    -0.027 A 
ATOM     32  C   UNL     1       4.280   5.826  -0.651  1.00  0.00     0.005 A 
ATOM     33  C   UNL     1       6.295   4.702  -1.410  1.00  0.00     0.005 A 
ATOM     34  C   UNL     1       3.603   5.480  -1.805  1.00  0.00     0.000 A 
ATOM     35  C   UNL     1       5.584   4.377  -2.545  1.00  0.00     0.000 A 
ATOM     36  C   UNL     1       4.277   4.749  -2.747  1.00  0.00     0.000 A 
ENDBRANCH  30  31
ENDBRANCH  29  30
ENDBRANCH   6  29
TORSDOF 14
ENDMDL
MODEL 3
REMARK VINA RESULT:       2.5      2.395      5.233
REMARK SMILES CC(C)CC(C)N=c1[nH]c(N(CCO)CCO)nc2c(=NCc3ccccc3)[nH]cnc12
REMARK SMILES IDX 8 1 9 2 10 3 18 4 19 5 20 6 29 7 30 8 31 9 32 10 7 13 5 14
REMARK SMILES IDX 6 15 4 16 2 17 1 18 3 19 11 20 12 21 13 22 14 23 15 25 16 26
REMARK SMILES IDX 17 27 21 29 22 30 23 31 24 32 28 33 25 34 27 35 26 36
REMARK H PARENT 9 11 29 12 14 24 17 28
ROOT
ATOM      1  C   UNL     1       7.961   3.520   2.245  1.00  0.00     0.156 A 
ATOM      2  N   UNL     1       8.242   2.389   2.976  1.00  0.00    -0.309 N 
ATOM      3  C   UNL     1       8.292   1.174   2.429  1.00  0.00     0.205 A 
ATOM      4  N   UNL     1       8.063   1.030   1.121  1.00  0.00    -0.209 NA
ATOM      5  C   UNL     1       7.784   2.072   0.348  1.00  0.00     0.139 A 
ATOM      6  C   UNL     1       7.544   1.838  -1.031  1.00  0.00     0.155 A 
ATOM      7  N   UNL     1       7.267   2.929  -1.739  1.00  0.00    -0.329 N 
ATOM      8  C   UNL     1       7.205   4.178  -1.232  1.00  0.00     0.199 A 
ATOM      9  N   UNL     1       7.435   4.371   0.074  1.00  0.00    -0.233 NA
ATOM     10  C   UNL     1       7.725   3.335   0.877  1.00  0.00     0.137 A 
ATOM     11  H   UNL     1       8.403   2.578   3.988  1.00  0.00     0.171 HD
ATOM     12  H   UNL     1       7.083   2.841  -2.754  1.00  0.00     0.169 HD
ENDROOT
BRANCH   1  13
ATOM     13  N   UNL     1       7.920   4.588   2.762  1.00  0.00    -0.263 NA
BRANCH  13  14
ATOM     14  C   UNL     1       7.658   5.669   3.536  1.00  0.00     0.105 C 
ATOM     15  C   UNL     1       8.484   5.689   4.809  1.00  0.00     0.033 C 
BRANCH  14  16
ATOM     16  C   UNL     1       6.173   5.824   3.778  1.00  0.00     0.030 C 
BRANCH  16  17
ATOM     17  C   UNL     1       5.376   4.581   3.840  1.00  0.00    -0.015 C 
ATOM     18  C   UNL     1       6.084   3.302   4.101  1.00  0.00     0.007 C 
ATOM     19  C   UNL     1       4.716   4.423   2.456  1.00  0.00     0.007 C 
ENDBRANCH  16  17
ENDBRANCH  14  16
ENDBRANCH  13  14
ENDBRANCH   1  13
BRANCH   3  20
ATOM     20  N   UNL     1       8.602  -0.018   3.218  1.00  0.00    -0.338 N 
BRANCH  20  21
ATOM     21  C   UNL     1       9.735  -0.773   2.767  1.00  0.00     0.148 C 
BRANCH  21  22
ATOM     22  C   UNL     1       9.471  -1.973   1.917  1.00  0.00     0.177 C 
BRANCH  22  23
ATOM     23  O   UNL     1       8.099  -2.052   1.708  1.00  0.00    -0.395 OA
ATOM     24  H   UNL     1       7.835  -2.787   1.124  1.00  0.00     0.210 HD
ENDBRANCH  22  23
ENDBRANCH  21  22
ENDBRANCH  20  21
BRANCH  20  25
ATOM     25  C   UNL     1       7.767  -0.338   4.347  1.00  0.00     0.148 C 
BRANCH  25  26
ATOM     26  C   UNL     1       6.299  -0.175   4.183  1.00  0.00     0.177 C 
BRANCH  26  27
ATOM     27  O   UNL     1       5.852  -1.016   3.114  1.00  0.00    -0.395 OA
ATOM     28  H   UNL     1       5.933  -1.925   3.523  1.00  0.00     0.210 HD
ENDBRANCH  26  27
ENDBRANCH  25  26
ENDBRANCH  20  25
ENDBRANCH   3  20
BRANCH   6  29
ATOM     29  N   UNL     1       7.628   0.656  -1.405  1.00  0.00    -0.262 NA
BRANCH  29  30
ATOM     30  C   UNL     1       6.951  -0.541  -1.415  1.00  0.00     0.180 C 
BRANCH  30  31
ATOM     31  C   UNL     1       5.542  -0.483  -0.967  1.00  0.00    -0.027 A 
ATOM     32  C   UNL     1       5.049   0.733  -0.495  1.00  0.00     0.005 A 
ATOM     33  C   UNL     1       4.731  -1.622  -1.000  1.00  0.00     0.005 A 
ATOM     34  C   UNL     1       3.748   0.855  -0.046  1.00  0.00     0.000 A 
ATOM     35  C   UNL     1       3.441  -1.457  -0.542  1.00  0.00     0.000 A 
ATOM     36  C   UNL     1       2.953  -0.260  -0.077  1.00  0.00     0.000 A 
ENDBRANCH  30  31
ENDBRANCH  29  30
ENDBRANCH   6  29
TORSDOF 14
ENDMDL
MODEL 4
REMARK VINA RESULT:       2.9      2.219      3.289
REMARK SMILES CC(C)CC(C)N=c1[nH]c(N(CCO)CCO)nc2c(=NCc3ccccc3)[nH]cnc12
REMARK SMILES IDX 8 1 9 2 10 3 18 4 19 5 20 6 29 7 30 8 31 9 32 10 7 13 5 14
REMARK SMILES IDX 6 15 4 16 2 17 1 18 3 19 11 20 12 21 13 22 14 23 15 25 16 26
REMARK SMILES IDX 17 27 21 29 22 30 23 31 24 32 28 33 25 34 27 35 26 36
REMARK H PARENT 9 11 29 12 14 24 17 28
ROOT
ATOM      1  C   UNL     1       7.977   0.265   2.710  1.00  0.00     0.156 A 
ATOM      2  N   UNL     1       8.384   1.579   2.705  1.00  0.00    -0.309 N 
ATOM      3  C   UNL     1       7.982   2.452   1.782  1.00  0.00     0.205 A 
ATOM      4  N   UNL     1       7.152   2.054   0.815  1.00  0.00    -0.209 NA
ATOM      5  C   UNL     1       6.715   0.803   0.749  1.00  0.00     0.139 A 
ATOM      6  C   UNL     1       5.841   0.452  -0.313  1.00  0.00     0.155 A 
ATOM      7  N   UNL     1       5.451  -0.819  -0.314  1.00  0.00    -0.329 N 
ATOM      8  C   UNL     1       5.829  -1.739   0.597  1.00  0.00     0.199 A 
ATOM      9  N   UNL     1       6.656  -1.382   1.590  1.00  0.00    -0.233 NA
ATOM     10  C   UNL     1       7.108  -0.121   1.683  1.00  0.00     0.137 A 
ATOM     11  H   UNL     1       9.035   1.815   3.484  1.00  0.00     0.171 HD
ATOM     12  H   UNL     1       4.809  -1.151  -1.056  1.00  0.00     0.169 HD
ENDROOT
BRANCH   1  13
ATOM     13  N   UNL     1       8.357  -0.490   3.544  1.00  0.00    -0.263 NA
BRANCH  13  14
ATOM     14  C   UNL     1       8.544  -1.239   4.657  1.00  0.00     0.105 C 
ATOM     15  C   UNL     1       9.732  -2.175   4.537  1.00  0.00     0.033 C 
BRANCH  14  16
ATOM     16  C   UNL     1       7.268  -1.935   5.072  1.00  0.00     0.030 C 
BRANCH  16  17
ATOM     17  C   UNL     1       6.002  -1.348   4.585  1.00  0.00    -0.015 C 
ATOM     18  C   UNL     1       5.697   0.061   4.942  1.00  0.00     0.007 C 
ATOM     19  C   UNL     1       4.869  -2.193   5.200  1.00  0.00     0.007 C 
ENDBRANCH  16  17
ENDBRANCH  14  16
ENDBRANCH  13  14
ENDBRANCH   1  13
BRANCH   3  20
ATOM     20  N   UNL     1       8.416   3.850   1.796  1.00  0.00    -0.338 N 
BRANCH  20  21
ATOM     21  C   UNL     1       9.260   4.216   2.897  1.00  0.00     0.148 C 
BRANCH  21  22
ATOM     22  C   UNL     1       8.621   4.359   4.240  1.00  0.00     0.177 C 
BRANCH  22  23
ATOM     23  O   UNL     1       8.044   3.138   4.567  1.00  0.00    -0.395 OA
ATOM     24  H   UNL     1       7.522   2.747   3.842  1.00  0.00     0.210 HD
ENDBRANCH  22  23
ENDBRANCH  21  22
ENDBRANCH  20  21
BRANCH  20  25
ATOM     25  C   UNL     1       7.970   4.724   0.744  1.00  0.00     0.148 C 
BRANCH  25  26
ATOM     26  C   UNL     1       8.023   4.207  -0.648  1.00  0.00     0.177 C 
BRANCH  26  27
ATOM     27  O   UNL     1       8.687   5.167  -1.477  1.00  0.00    -0.395 OA
ATOM     28  H   UNL     1       8.069   5.222  -2.262  1.00  0.00     0.210 HD
ENDBRANCH  26  27
ENDBRANCH  25  26
ENDBRANCH  20  25
ENDBRANCH   3  20
BRANCH   6  29
ATOM     29  N   UNL     1       5.546   1.368  -1.099  1.00  0.00    -0.262 NA
BRANCH  29  30
ATOM     30  C   UNL     1       4.517   2.197  -1.479  1.00  0.00     0.180 C 
BRANCH  30  31
ATOM     31  C   UNL     1       4.347   3.422  -0.669  1.00  0.00    -0.027 A 
ATOM     32  C   UNL     1       4.298   4.649  -1.331  1.00  0.00     0.005 A 
ATOM     33  C   UNL     1       4.256   3.355   0.725  1.00  0.00     0.005 A 
ATOM     34  C   UNL     1       4.157   5.835  -0.635  1.00  0.00     0.000 A 
ATOM     35  C   UNL     1       4.118   4.561   1.380  1.00  0.00     0.000 A 
ATOM     36  C   UNL     1       4.069   5.770   0.730  1.00  0.00     0.000 A 
ENDBRANCH  30  31
ENDBRANCH  29  30
ENDBRANCH   6  29
TORSDOF 14
ENDMDL
MODEL 5
REMARK VINA RESULT:       3.7      2.534      5.287
REMARK SMILES CC(C)CC(C)N=c1[nH]c(N(CCO)CCO)nc2c(=NCc3ccccc3)[nH]cnc12
REMARK SMILES IDX 8 1 9 2 10 3 18 4 19 5 20 6 29 7 30 8 31 9 32 10 7 13 5 14
REMARK SMILES IDX 6 15 4 16 2 17 1 18 3 19 11 20 12 21 13 22 14 23 15 25 16 26
REMARK SMILES IDX 17 27 21 29 22 30 23 31 24 32 28 33 25 34 27 35 26 36
REMARK H PARENT 9 11 29 12 14 24 17 28
ROOT
ATOM      1  C   UNL     1       5.164   1.185  -0.877  1.00  0.00     0.156 A 
ATOM      2  N   UNL     1       6.229   0.425  -0.454  1.00  0.00    -0.309 N 
ATOM      3  C   UNL     1       7.440   0.939  -0.243  1.00  0.00     0.205 A 
ATOM      4  N   UNL     1       7.647   2.244  -0.446  1.00  0.00    -0.209 NA
ATOM      5  C   UNL     1       6.671   3.044  -0.855  1.00  0.00     0.139 A 
ATOM      6  C   UNL     1       6.969   4.417  -1.056  1.00  0.00     0.155 A 
ATOM      7  N   UNL     1       5.942   5.153  -1.471  1.00  0.00    -0.329 N 
ATOM      8  C   UNL     1       4.700   4.679  -1.698  1.00  0.00     0.199 A 
ATOM      9  N   UNL     1       4.445   3.378  -1.501  1.00  0.00    -0.233 NA
ATOM     10  C   UNL     1       5.413   2.548  -1.081  1.00  0.00     0.137 A 
ATOM     11  H   UNL     1       5.995  -0.582  -0.324  1.00  0.00     0.171 HD
ATOM     12  H   UNL     1       6.080   6.166  -1.638  1.00  0.00     0.169 HD
ENDROOT
BRANCH   1  13
ATOM     13  N   UNL     1       4.098   0.696  -1.060  1.00  0.00    -0.263 NA
BRANCH  13  14
ATOM     14  C   UNL     1       2.779   0.388  -1.109  1.00  0.00     0.105 C 
ATOM     15  C   UNL     1       1.925   1.552  -1.577  1.00  0.00     0.033 C 
BRANCH  14  16
ATOM     16  C   UNL     1       2.308  -0.221   0.192  1.00  0.00     0.030 C 
BRANCH  16  17
ATOM     17  C   UNL     1       2.893   0.329   1.433  1.00  0.00    -0.015 C 
ATOM     18  C   UNL     1       3.109   1.795   1.520  1.00  0.00     0.007 C 
ATOM     19  C   UNL     1       4.288  -0.312   1.573  1.00  0.00     0.007 C 
ENDBRANCH  16  17
ENDBRANCH  14  16
ENDBRANCH  13  14
ENDBRANCH   1  13
BRANCH   3  20
ATOM     20  N   UNL     1       8.561   0.119   0.217  1.00  0.00    -0.338 N 
BRANCH  20  21
ATOM     21  C   UNL     1       9.730   0.160  -0.614  1.00  0.00     0.148 C 
BRANCH  21  22
ATOM     22  C   UNL     1       9.605   0.818  -1.950  1.00  0.00     0.177 C 
BRANCH  22  23
ATOM     23  O   UNL     1       9.222   2.137  -1.739  1.00  0.00    -0.395 OA
ATOM     24  H   UNL     1       8.860   2.301  -0.848  1.00  0.00     0.210 HD
ENDBRANCH  22  23
ENDBRANCH  21  22
ENDBRANCH  20  21
BRANCH  20  25
ATOM     25  C   UNL     1       8.408  -0.650   1.424  1.00  0.00     0.148 C 
BRANCH  25  26
ATOM     26  C   UNL     1       9.310  -0.331   2.561  1.00  0.00     0.177 C 
BRANCH  26  27
ATOM     27  O   UNL     1       9.697   1.045   2.477  1.00  0.00    -0.395 OA
ATOM     28  H   UNL     1       9.152   1.455   3.209  1.00  0.00     0.210 HD
ENDBRANCH  26  27
ENDBRANCH  25  26
ENDBRANCH  20  25
ENDBRANCH   3  20
BRANCH   6  29
ATOM     29  N   UNL     1       8.140   4.760  -0.817  1.00  0.00    -0.262 NA
BRANCH  29  30
ATOM     30  C   UNL     1       8.922   5.422   0.100  1.00  0.00     0.180 C 
BRANCH  30  31
ATOM     31  C   UNL     1       8.702   5.054   1.515  1.00  0.00    -0.027 A 
ATOM     32  C   UNL     1       9.372   3.938   2.018  1.00  0.00     0.005 A 
ATOM     33  C   UNL     1       7.832   5.793   2.324  1.00  0.00     0.005 A 
ATOM     34  C   UNL     1       9.201   3.527   3.326  1.00  0.00     0.000 A 
ATOM     35  C   UNL     1       7.690   5.348   3.621  1.00  0.00     0.000 A 
ATOM     36  C   UNL     1       8.349   4.250   4.118  1.00  0.00     0.000 A 
ENDBRANCH  30  31
ENDBRANCH  29  30
ENDBRANCH   6  29
TORSDOF 14
ENDMDL
MODEL 6
REMARK VINA RESULT:       3.7      2.332      6.339
REMARK SMILES CC(C)CC(C)N=c1[nH]c(N(CCO)CCO)nc2c(=NCc3ccccc3)[nH]cnc12
REMARK SMILES IDX 8 1 9 2 10 3 18 4 19 5 20 6 29 7 30 8 31 9 32 10 7 13 5 14
REMARK SMILES IDX 6 15 4 16 2 17 1 18 3 19 11 20 12 21 13 22 14 23 15 25 16 26
REMARK SMILES IDX 17 27 21 29 22 30 23 31 24 32 28 33 25 34 27 35 26 36
REMARK H PARENT 9 11 29 12 14 24 17 28
ROOT
ATOM      1  C   UNL     1       5.593   3.662   0.974  1.00  0.00     0.156 A 
ATOM      2  N   UNL     1       6.246   4.196   2.060  1.00  0.00    -0.309 N 
ATOM      3  C   UNL     1       6.454   3.509   3.183  1.00  0.00     0.205 A 
ATOM      4  N   UNL     1       6.018   2.249   3.275  1.00  0.00    -0.209 NA
ATOM      5  C   UNL     1       5.379   1.663   2.272  1.00  0.00     0.139 A 
ATOM      6  C   UNL     1       4.939   0.324   2.447  1.00  0.00     0.155 A 
ATOM      7  N   UNL     1       4.303  -0.192   1.400  1.00  0.00    -0.329 N 
ATOM      8  C   UNL     1       4.068   0.462   0.244  1.00  0.00     0.199 A 
ATOM      9  N   UNL     1       4.494   1.725   0.104  1.00  0.00    -0.233 NA
ATOM     10  C   UNL     1       5.149   2.340   1.102  1.00  0.00     0.137 A 
ATOM     11  H   UNL     1       6.550   5.182   1.918  1.00  0.00     0.171 HD
ATOM     12  H   UNL     1       3.954  -1.166   1.451  1.00  0.00     0.169 HD
ENDROOT
BRANCH   1  13
ATOM     13  N   UNL     1       5.420   4.301  -0.011  1.00  0.00    -0.263 NA
BRANCH  13  14
ATOM     14  C   UNL     1       5.475   5.188  -1.035  1.00  0.00     0.105 C 
ATOM     15  C   UNL     1       4.483   4.868  -2.138  1.00  0.00     0.033 C 
BRANCH  14  16
ATOM     16  C   UNL     1       6.892   5.365  -1.532  1.00  0.00     0.030 C 
BRANCH  16  17
ATOM     17  C   UNL     1       7.559   4.166  -2.080  1.00  0.00    -0.015 C 
ATOM     18  C   UNL     1       6.781   3.275  -2.979  1.00  0.00     0.007 C 
ATOM     19  C   UNL     1       7.954   3.300  -0.868  1.00  0.00     0.007 C 
ENDBRANCH  16  17
ENDBRANCH  14  16
ENDBRANCH  13  14
ENDBRANCH   1  13
BRANCH   3  20
ATOM     20  N   UNL     1       7.159   4.088   4.327  1.00  0.00    -0.338 N 
BRANCH  20  21
ATOM     21  C   UNL     1       8.490   3.597   4.537  1.00  0.00     0.148 C 
BRANCH  21  22
ATOM     22  C   UNL     1       8.763   2.170   4.189  1.00  0.00     0.177 C 
BRANCH  22  23
ATOM     23  O   UNL     1       9.472   2.154   2.994  1.00  0.00    -0.395 OA
ATOM     24  H   UNL     1       9.812   1.272   2.754  1.00  0.00     0.210 HD
ENDBRANCH  22  23
ENDBRANCH  21  22
ENDBRANCH  20  21
BRANCH  20  25
ATOM     25  C   UNL     1       6.481   5.069   5.133  1.00  0.00     0.148 C 
BRANCH  25  26
ATOM     26  C   UNL     1       5.357   5.815   4.509  1.00  0.00     0.177 C 
BRANCH  26  27
ATOM     27  O   UNL     1       4.147   5.507   5.209  1.00  0.00    -0.395 OA
ATOM     28  H   UNL     1       4.102   6.252   5.875  1.00  0.00     0.210 HD
ENDBRANCH  26  27
ENDBRANCH  25  26
ENDBRANCH  20  25
ENDBRANCH   3  20
BRANCH   6  29
ATOM     29  N   UNL     1       5.205  -0.196   3.544  1.00  0.00    -0.262 NA
BRANCH  29  30
ATOM     30  C   UNL     1       6.246  -0.670   4.308  1.00  0.00     0.180 C 
BRANCH  30  31
ATOM     31  C   UNL     1       7.452  -1.088   3.560  1.00  0.00    -0.027 A 
ATOM     32  C   UNL     1       7.978  -0.209   2.614  1.00  0.00     0.005 A 
ATOM     33  C   UNL     1       8.038  -2.338   3.782  1.00  0.00     0.005 A 
ATOM     34  C   UNL     1       9.093  -0.541   1.868  1.00  0.00     0.000 A 
ATOM     35  C   UNL     1       9.146  -2.630   3.016  1.00  0.00     0.000 A 
ATOM     36  C   UNL     1       9.667  -1.765   2.084  1.00  0.00     0.000 A 
ENDBRANCH  30  31
ENDBRANCH  29  30
ENDBRANCH   6  29
TORSDOF 14
ENDMDL
