MODEL 1
REMARK VINA RESULT:      -3.9      0.000      0.000
REMARK SMILES Cc1noc(C)c1C(=O)N=c1[nH]c(-c2ccccc2)cs1
REMARK SMILES IDX 8 1 9 2 7 3 2 4 3 5 4 6 5 7 1 8 6 9 10 10 11 11 12 12 21 13
REMARK SMILES IDX 13 14 20 15 14 17 15 18 19 19 16 20 18 21 17 22
REMARK H PARENT 12 16
ROOT
ATOM      1  C   UNL     1       4.705   2.747  -0.951  1.00  0.00     0.285 C 
ATOM      2  O   UNL     1       4.141   2.520  -2.066  1.00  0.00    -0.266 OA
ENDROOT
BRANCH   1   3
ATOM      3  C   UNL     1       5.674   3.828  -0.935  1.00  0.00     0.107 A 
ATOM      4  C   UNL     1       7.042   3.756  -1.053  1.00  0.00     0.094 A 
ATOM      5  N   UNL     1       7.474   5.044  -0.966  1.00  0.00    -0.084 NA
ATOM      6  O   UNL     1       6.451   5.845  -0.804  1.00  0.00    -0.361 OA
ATOM      7  C   UNL     1       5.332   5.158  -0.778  1.00  0.00     0.146 A 
ATOM      8  C   UNL     1       7.862   2.534  -1.238  1.00  0.00     0.071 C 
ATOM      9  C   UNL     1       3.970   5.734  -0.610  1.00  0.00     0.092 C 
ENDBRANCH   1   3
BRANCH   1  10
ATOM     10  N   UNL     1       4.344   1.949   0.133  1.00  0.00    -0.181 NA
BRANCH  10  11
ATOM     11  C   UNL     1       5.081   1.089   0.710  1.00  0.00     0.190 A 
ATOM     12  N   UNL     1       5.984   1.269   1.658  1.00  0.00    -0.330 N 
ATOM     13  S   UNL     1       5.078  -0.698   0.340  1.00  0.00    -0.105 S 
ATOM     14  C   UNL     1       6.656   0.262   2.130  1.00  0.00     0.058 A 
ATOM     15  C   UNL     1       6.377  -0.993   1.591  1.00  0.00     0.095 A 
ATOM     16  H   UNL     1       6.142   2.279   2.024  1.00  0.00     0.169 HD
BRANCH  14  17
ATOM     17  C   UNL     1       7.689   0.382   3.189  1.00  0.00    -0.001 A 
ATOM     18  C   UNL     1       7.693   1.418   4.091  1.00  0.00     0.010 A 
ATOM     19  C   UNL     1       8.702  -0.543   3.291  1.00  0.00     0.010 A 
ATOM     20  C   UNL     1       8.645   1.572   5.074  1.00  0.00     0.001 A 
ATOM     21  C   UNL     1       9.657  -0.395   4.274  1.00  0.00     0.001 A 
ATOM     22  C   UNL     1       9.659   0.648   5.180  1.00  0.00     0.000 A 
ENDBRANCH  14  17
ENDBRANCH  10  11
ENDBRANCH   1  10
TORSDOF 4
ENDMDL
MODEL 2
REMARK VINA RESULT:      -3.4      1.672      2.318
REMARK SMILES Cc1noc(C)c1C(=O)N=c1[nH]c(-c2ccccc2)cs1
REMARK SMILES IDX 8 1 9 2 7 3 2 4 3 5 4 6 5 7 1 8 6 9 10 10 11 11 12 12 21 13
REMARK SMILES IDX 13 14 20 15 14 17 15 18 19 19 16 20 18 21 17 22
REMARK H PARENT 12 16
ROOT
ATOM      1  C   UNL     1       5.970   4.162  -0.599  1.00  0.00     0.285 C 
ATOM      2  O   UNL     1       5.510   5.286  -0.968  1.00  0.00    -0.266 OA
ENDROOT
BRANCH   1   3
ATOM      3  C   UNL     1       7.386   4.129  -0.274  1.00  0.00     0.107 A 
ATOM      4  C   UNL     1       8.433   3.690  -1.049  1.00  0.00     0.094 A 
ATOM      5  N   UNL     1       9.542   3.865  -0.278  1.00  0.00    -0.084 NA
ATOM      6  O   UNL     1       9.202   4.371   0.880  1.00  0.00    -0.361 OA
ATOM      7  C   UNL     1       7.902   4.552   0.936  1.00  0.00     0.146 A 
ATOM      8  C   UNL     1       8.363   3.145  -2.426  1.00  0.00     0.071 C 
ATOM      9  C   UNL     1       7.158   5.108   2.098  1.00  0.00     0.092 C 
ENDBRANCH   1   3
BRANCH   1  10
ATOM     10  N   UNL     1       5.087   3.086  -0.541  1.00  0.00    -0.181 NA
BRANCH  10  11
ATOM     11  C   UNL     1       5.339   1.934  -0.066  1.00  0.00     0.190 A 
ATOM     12  N   UNL     1       6.150   1.601   0.923  1.00  0.00    -0.330 N 
ATOM     13  S   UNL     1       4.609   0.377  -0.675  1.00  0.00    -0.105 S 
ATOM     14  C   UNL     1       6.289   0.357   1.272  1.00  0.00     0.058 A 
ATOM     15  C   UNL     1       5.550  -0.587   0.560  1.00  0.00     0.095 A 
ATOM     16  H   UNL     1       6.690   2.396   1.427  1.00  0.00     0.169 HD
BRANCH  14  17
ATOM     17  C   UNL     1       7.182  -0.099   2.367  1.00  0.00    -0.001 A 
ATOM     18  C   UNL     1       8.271  -0.902   2.134  1.00  0.00     0.010 A 
ATOM     19  C   UNL     1       6.932   0.257   3.672  1.00  0.00     0.010 A 
ATOM     20  C   UNL     1       9.110  -1.359   3.126  1.00  0.00     0.001 A 
ATOM     21  C   UNL     1       7.769  -0.197   4.669  1.00  0.00     0.001 A 
ATOM     22  C   UNL     1       8.865  -1.005   4.432  1.00  0.00     0.000 A 
ENDBRANCH  14  17
ENDBRANCH  10  11
ENDBRANCH   1  10
TORSDOF 4
ENDMDL
MODEL 3
REMARK VINA RESULT:      -3.4      3.140      5.165
REMARK SMILES Cc1noc(C)c1C(=O)N=c1[nH]c(-c2ccccc2)cs1
REMARK SMILES IDX 8 1 9 2 7 3 2 4 3 5 4 6 5 7 1 8 6 9 10 10 11 11 12 12 21 13
REMARK SMILES IDX 13 14 20 15 14 17 15 18 19 19 16 20 18 21 17 22
REMARK H PARENT 12 16
ROOT
ATOM      1  C   UNL     1       8.791   4.788   1.951  1.00  0.00     0.285 C 
ATOM      2  O   UNL     1       9.458   5.847   1.740  1.00  0.00    -0.266 OA
ENDROOT
BRANCH   1   3
ATOM      3  C   UNL     1       7.429   4.975   2.419  1.00  0.00     0.107 A 
ATOM      4  C   UNL     1       6.323   5.365   1.702  1.00  0.00     0.094 A 
ATOM      5  N   UNL     1       5.305   5.394   2.607  1.00  0.00    -0.084 NA
ATOM      6  O   UNL     1       5.753   5.050   3.788  1.00  0.00    -0.361 OA
ATOM      7  C   UNL     1       7.039   4.784   3.730  1.00  0.00     0.146 A 
ATOM      8  C   UNL     1       6.258   5.683   0.255  1.00  0.00     0.071 C 
ATOM      9  C   UNL     1       7.884   4.362   4.880  1.00  0.00     0.092 C 
ENDBRANCH   1   3
BRANCH   1  10
ATOM     10  N   UNL     1       9.421   3.567   1.717  1.00  0.00    -0.181 NA
BRANCH  10  11
ATOM     11  C   UNL     1       8.844   2.464   1.456  1.00  0.00     0.190 A 
ATOM     12  N   UNL     1       7.593   2.245   1.091  1.00  0.00    -0.330 N 
ATOM     13  S   UNL     1       9.648   0.827   1.536  1.00  0.00    -0.105 S 
ATOM     14  C   UNL     1       7.172   1.035   0.870  1.00  0.00     0.058 A 
ATOM     15  C   UNL     1       8.095   0.003   1.035  1.00  0.00     0.095 A 
ATOM     16  H   UNL     1       6.937   3.103   0.985  1.00  0.00     0.169 HD
BRANCH  14  17
ATOM     17  C   UNL     1       5.783   0.706   0.463  1.00  0.00    -0.001 A 
ATOM     18  C   UNL     1       5.346   0.859  -0.829  1.00  0.00     0.010 A 
ATOM     19  C   UNL     1       4.870   0.249   1.385  1.00  0.00     0.010 A 
ATOM     20  C   UNL     1       4.060   0.582  -1.239  1.00  0.00     0.001 A 
ATOM     21  C   UNL     1       3.582  -0.030   0.981  1.00  0.00     0.001 A 
ATOM     22  C   UNL     1       3.145   0.124  -0.321  1.00  0.00     0.000 A 
ENDBRANCH  14  17
ENDBRANCH  10  11
ENDBRANCH   1  10
TORSDOF 4
ENDMDL
MODEL 4
REMARK VINA RESULT:      -3.2      3.240      5.983
REMARK SMILES Cc1noc(C)c1C(=O)N=c1[nH]c(-c2ccccc2)cs1
REMARK SMILES IDX 8 1 9 2 7 3 2 4 3 5 4 6 5 7 1 8 6 9 10 10 11 11 12 12 21 13
REMARK SMILES IDX 13 14 20 15 14 17 15 18 19 19 16 20 18 21 17 22
REMARK H PARENT 12 16
ROOT
ATOM      1  C   UNL     1       8.342   3.707   4.078  1.00  0.00     0.285 C 
ATOM      2  O   UNL     1       9.137   4.231   4.918  1.00  0.00    -0.266 OA
ENDROOT
BRANCH   1   3
ATOM      3  C   UNL     1       8.851   2.557   3.351  1.00  0.00     0.107 A 
ATOM      4  C   UNL     1       8.919   1.246   3.759  1.00  0.00     0.094 A 
ATOM      5  N   UNL     1       9.482   0.578   2.714  1.00  0.00    -0.084 NA
ATOM      6  O   UNL     1       9.740   1.415   1.741  1.00  0.00    -0.361 OA
ATOM      7  C   UNL     1       9.376   2.632   2.075  1.00  0.00     0.146 A 
ATOM      8  C   UNL     1       8.473   0.687   5.058  1.00  0.00     0.071 C 
ATOM      9  C   UNL     1       9.517   3.841   1.218  1.00  0.00     0.092 C 
ENDBRANCH   1   3
BRANCH   1  10
ATOM     10  N   UNL     1       7.077   4.276   3.938  1.00  0.00    -0.181 NA
BRANCH  10  11
ATOM     11  C   UNL     1       6.276   4.093   2.969  1.00  0.00     0.190 A 
ATOM     12  N   UNL     1       5.937   2.963   2.372  1.00  0.00    -0.330 N 
ATOM     13  S   UNL     1       5.356   5.418   2.116  1.00  0.00    -0.105 S 
ATOM     14  C   UNL     1       5.097   2.967   1.380  1.00  0.00     0.058 A 
ATOM     15  C   UNL     1       4.583   4.203   0.991  1.00  0.00     0.095 A 
ATOM     16  H   UNL     1       6.383   2.043   2.735  1.00  0.00     0.169 HD
BRANCH  14  17
ATOM     17  C   UNL     1       4.670   1.744   0.654  1.00  0.00    -0.001 A 
ATOM     18  C   UNL     1       5.158   0.500   0.971  1.00  0.00     0.010 A 
ATOM     19  C   UNL     1       3.775   1.821  -0.387  1.00  0.00     0.010 A 
ATOM     20  C   UNL     1       4.800  -0.653   0.308  1.00  0.00     0.001 A 
ATOM     21  C   UNL     1       3.412   0.671  -1.054  1.00  0.00     0.001 A 
ATOM     22  C   UNL     1       3.904  -0.580  -0.733  1.00  0.00     0.000 A 
ENDBRANCH  14  17
ENDBRANCH  10  11
ENDBRANCH   1  10
TORSDOF 4
ENDMDL
MODEL 5
REMARK VINA RESULT:      -3.2      3.329      5.830
REMARK SMILES Cc1noc(C)c1C(=O)N=c1[nH]c(-c2ccccc2)cs1
REMARK SMILES IDX 8 1 9 2 7 3 2 4 3 5 4 6 5 7 1 8 6 9 10 10 11 11 12 12 21 13
REMARK SMILES IDX 13 14 20 15 14 17 15 18 19 19 16 20 18 21 17 22
REMARK H PARENT 12 16
ROOT
ATOM      1  C   UNL     1       8.833   4.164   3.301  1.00  0.00     0.285 C 
ATOM      2  O   UNL     1       9.740   4.702   4.007  1.00  0.00    -0.266 OA
ENDROOT
BRANCH   1   3
ATOM      3  C   UNL     1       9.192   2.921   2.641  1.00  0.00     0.107 A 
ATOM      4  C   UNL     1       9.479   2.706   1.314  1.00  0.00     0.094 A 
ATOM      5  N   UNL     1       9.740   1.373   1.218  1.00  0.00    -0.084 NA
ATOM      6  O   UNL     1       9.621   0.813   2.396  1.00  0.00    -0.361 OA
ATOM      7  C   UNL     1       9.289   1.709   3.297  1.00  0.00     0.146 A 
ATOM      8  C   UNL     1       9.500   3.714   0.226  1.00  0.00     0.071 C 
ATOM      9  C   UNL     1       9.066   1.436   4.743  1.00  0.00     0.092 C 
ENDBRANCH   1   3
BRANCH   1  10
ATOM     10  N   UNL     1       7.599   4.808   3.228  1.00  0.00    -0.181 NA
BRANCH  10  11
ATOM     11  C   UNL     1       6.636   4.500   2.458  1.00  0.00     0.190 A 
ATOM     12  N   UNL     1       6.286   3.311   1.999  1.00  0.00    -0.330 N 
ATOM     13  S   UNL     1       5.447   5.691   1.753  1.00  0.00    -0.105 S 
ATOM     14  C   UNL     1       5.264   3.184   1.206  1.00  0.00     0.058 A 
ATOM     15  C   UNL     1       4.572   4.348   0.874  1.00  0.00     0.095 A 
ATOM     16  H   UNL     1       6.877   2.454   2.305  1.00  0.00     0.169 HD
BRANCH  14  17
ATOM     17  C   UNL     1       4.810   1.887   0.645  1.00  0.00    -0.001 A 
ATOM     18  C   UNL     1       3.960   1.815  -0.431  1.00  0.00     0.010 A 
ATOM     19  C   UNL     1       5.216   0.698   1.206  1.00  0.00     0.010 A 
ATOM     20  C   UNL     1       3.503   0.630  -0.966  1.00  0.00     0.001 A 
ATOM     21  C   UNL     1       4.762  -0.490   0.675  1.00  0.00     0.001 A 
ATOM     22  C   UNL     1       3.907  -0.560  -0.409  1.00  0.00     0.000 A 
ENDBRANCH  14  17
ENDBRANCH  10  11
ENDBRANCH   1  10
TORSDOF 4
ENDMDL
MODEL 6
REMARK VINA RESULT:      -3.1      2.943      5.818
REMARK SMILES Cc1noc(C)c1C(=O)N=c1[nH]c(-c2ccccc2)cs1
REMARK SMILES IDX 8 1 9 2 7 3 2 4 3 5 4 6 5 7 1 8 6 9 10 10 11 11 12 12 21 13
REMARK SMILES IDX 13 14 20 15 14 17 15 18 19 19 16 20 18 21 17 22
REMARK H PARENT 12 16
ROOT
ATOM      1  C   UNL     1       6.336  -0.601   3.184  1.00  0.00     0.285 C 
ATOM      2  O   UNL     1       5.766  -1.044   4.228  1.00  0.00    -0.266 OA
ENDROOT
BRANCH   1   3
ATOM      3  C   UNL     1       7.633   0.023   3.382  1.00  0.00     0.107 A 
ATOM      4  C   UNL     1       8.853  -0.579   3.579  1.00  0.00     0.094 A 
ATOM      5  N   UNL     1       9.737   0.448   3.718  1.00  0.00    -0.084 NA
ATOM      6  O   UNL     1       9.108   1.591   3.616  1.00  0.00    -0.361 OA
ATOM      7  C   UNL     1       7.826   1.390   3.411  1.00  0.00     0.146 A 
ATOM      8  C   UNL     1       9.138  -2.034   3.627  1.00  0.00     0.071 C 
ATOM      9  C   UNL     1       6.802   2.458   3.246  1.00  0.00     0.092 C 
ENDBRANCH   1   3
BRANCH   1  10
ATOM     10  N   UNL     1       5.674  -0.755   1.967  1.00  0.00    -0.181 NA
BRANCH  10  11
ATOM     11  C   UNL     1       5.678   0.072   1.002  1.00  0.00     0.190 A 
ATOM     12  N   UNL     1       6.706   0.638   0.394  1.00  0.00    -0.330 N 
ATOM     13  S   UNL     1       4.181   0.720   0.183  1.00  0.00    -0.105 S 
ATOM     14  C   UNL     1       6.518   1.475  -0.582  1.00  0.00     0.058 A 
ATOM     15  C   UNL     1       5.198   1.736  -0.946  1.00  0.00     0.095 A 
ATOM     16  H   UNL     1       7.703   0.381   0.738  1.00  0.00     0.169 HD
BRANCH  14  17
ATOM     17  C   UNL     1       7.619   2.155  -1.310  1.00  0.00    -0.001 A 
ATOM     18  C   UNL     1       8.686   1.465  -1.828  1.00  0.00     0.010 A 
ATOM     19  C   UNL     1       7.614   3.521  -1.474  1.00  0.00     0.010 A 
ATOM     20  C   UNL     1       9.734   2.064  -2.493  1.00  0.00     0.001 A 
ATOM     21  C   UNL     1       8.659   4.126  -2.139  1.00  0.00     0.001 A 
ATOM     22  C   UNL     1       9.732   3.429  -2.660  1.00  0.00     0.000 A 
ENDBRANCH  14  17
ENDBRANCH  10  11
ENDBRANCH   1  10
TORSDOF 4
ENDMDL
MODEL 7
REMARK VINA RESULT:      -2.9      2.797      5.690
REMARK SMILES Cc1noc(C)c1C(=O)N=c1[nH]c(-c2ccccc2)cs1
REMARK SMILES IDX 8 1 9 2 7 3 2 4 3 5 4 6 5 7 1 8 6 9 10 10 11 11 12 12 21 13
REMARK SMILES IDX 13 14 20 15 14 17 15 18 19 19 16 20 18 21 17 22
REMARK H PARENT 12 16
ROOT
ATOM      1  C   UNL     1       6.596  -0.763   1.419  1.00  0.00     0.285 C 
ATOM      2  O   UNL     1       6.565  -2.018   1.606  1.00  0.00    -0.266 OA
ENDROOT
BRANCH   1   3
ATOM      3  C   UNL     1       7.793  -0.080   1.879  1.00  0.00     0.107 A 
ATOM      4  C   UNL     1       8.915   0.261   1.163  1.00  0.00     0.094 A 
ATOM      5  N   UNL     1       9.738   0.871   2.060  1.00  0.00    -0.084 NA
ATOM      6  O   UNL     1       9.165   0.900   3.237  1.00  0.00    -0.361 OA
ATOM      7  C   UNL     1       7.981   0.335   3.184  1.00  0.00     0.146 A 
ATOM      8  C   UNL     1       9.168   0.016  -0.278  1.00  0.00     0.071 C 
ATOM      9  C   UNL     1       7.044   0.187   4.331  1.00  0.00     0.092 C 
ENDBRANCH   1   3
BRANCH   1  10
ATOM     10  N   UNL     1       5.498  -0.170   0.799  1.00  0.00    -0.181 NA
BRANCH  10  11
ATOM     11  C   UNL     1       5.522   0.861   0.057  1.00  0.00     0.190 A 
ATOM     12  N   UNL     1       6.523   1.689  -0.186  1.00  0.00    -0.330 N 
ATOM     13  S   UNL     1       4.098   1.487  -0.898  1.00  0.00    -0.105 S 
ATOM     14  C   UNL     1       6.361   2.708  -0.977  1.00  0.00     0.058 A 
ATOM     15  C   UNL     1       5.098   2.874  -1.544  1.00  0.00     0.095 A 
ATOM     16  H   UNL     1       7.475   1.490   0.295  1.00  0.00     0.169 HD
BRANCH  14  17
ATOM     17  C   UNL     1       7.432   3.684  -1.295  1.00  0.00    -0.001 A 
ATOM     18  C   UNL     1       7.510   4.909  -0.679  1.00  0.00     0.010 A 
ATOM     19  C   UNL     1       8.384   3.398  -2.246  1.00  0.00     0.010 A 
ATOM     20  C   UNL     1       8.478   5.847  -0.963  1.00  0.00     0.001 A 
ATOM     21  C   UNL     1       9.356   4.333  -2.534  1.00  0.00     0.001 A 
ATOM     22  C   UNL     1       9.432   5.565  -1.912  1.00  0.00     0.000 A 
ENDBRANCH  14  17
ENDBRANCH  10  11
ENDBRANCH   1  10
TORSDOF 4
ENDMDL
MODEL 8
REMARK VINA RESULT:      -2.8      2.541      3.561
REMARK SMILES Cc1noc(C)c1C(=O)N=c1[nH]c(-c2ccccc2)cs1
REMARK SMILES IDX 8 1 9 2 7 3 2 4 3 5 4 6 5 7 1 8 6 9 10 10 11 11 12 12 21 13
REMARK SMILES IDX 13 14 20 15 14 17 15 18 19 19 16 20 18 21 17 22
REMARK H PARENT 12 16
ROOT
ATOM      1  C   UNL     1       5.310   0.055   0.945  1.00  0.00     0.285 C 
ATOM      2  O   UNL     1       4.210  -0.377   0.480  1.00  0.00    -0.266 OA
ENDROOT
BRANCH   1   3
ATOM      3  C   UNL     1       5.954   1.110   0.182  1.00  0.00     0.107 A 
ATOM      4  C   UNL     1       7.131   1.060  -0.527  1.00  0.00     0.094 A 
ATOM      5  N   UNL     1       7.287   2.311  -1.044  1.00  0.00    -0.084 NA
ATOM      6  O   UNL     1       6.285   3.070  -0.678  1.00  0.00    -0.361 OA
ATOM      7  C   UNL     1       5.445   2.389   0.069  1.00  0.00     0.146 A 
ATOM      8  C   UNL     1       8.030  -0.108  -0.691  1.00  0.00     0.071 C 
ATOM      9  C   UNL     1       4.191   2.927   0.665  1.00  0.00     0.092 C 
ENDBRANCH   1   3
BRANCH   1  10
ATOM     10  N   UNL     1       5.785  -0.517   2.124  1.00  0.00    -0.181 NA
BRANCH  10  11
ATOM     11  C   UNL     1       6.572   0.031   2.959  1.00  0.00     0.190 A 
ATOM     12  N   UNL     1       6.902   1.305   3.079  1.00  0.00    -0.330 N 
ATOM     13  S   UNL     1       7.492  -0.860   4.258  1.00  0.00    -0.105 S 
ATOM     14  C   UNL     1       7.737   1.687   3.998  1.00  0.00     0.058 A 
ATOM     15  C   UNL     1       8.253   0.699   4.835  1.00  0.00     0.095 A 
ATOM     16  H   UNL     1       6.456   2.013   2.387  1.00  0.00     0.169 HD
BRANCH  14  17
ATOM     17  C   UNL     1       8.162   3.096   4.194  1.00  0.00    -0.001 A 
ATOM     18  C   UNL     1       9.317   3.424   4.860  1.00  0.00     0.010 A 
ATOM     19  C   UNL     1       7.391   4.134   3.725  1.00  0.00     0.010 A 
ATOM     20  C   UNL     1       9.733   4.719   5.078  1.00  0.00     0.001 A 
ATOM     21  C   UNL     1       7.802   5.433   3.939  1.00  0.00     0.001 A 
ATOM     22  C   UNL     1       8.965   5.760   4.609  1.00  0.00     0.000 A 
ENDBRANCH  14  17
ENDBRANCH  10  11
ENDBRANCH   1  10
TORSDOF 4
ENDMDL
MODEL 9
REMARK VINA RESULT:      -2.7      1.937      2.405
REMARK SMILES Cc1noc(C)c1C(=O)N=c1[nH]c(-c2ccccc2)cs1
REMARK SMILES IDX 8 1 9 2 7 3 2 4 3 5 4 6 5 7 1 8 6 9 10 10 11 11 12 12 21 13
REMARK SMILES IDX 13 14 20 15 14 17 15 18 19 19 16 20 18 21 17 22
REMARK H PARENT 12 16
ROOT
ATOM      1  C   UNL     1       5.133   3.796   1.163  1.00  0.00     0.285 C 
ATOM      2  O   UNL     1       4.393   4.827   1.121  1.00  0.00    -0.266 OA
ENDROOT
BRANCH   1   3
ATOM      3  C   UNL     1       6.565   4.037   1.121  1.00  0.00     0.107 A 
ATOM      4  C   UNL     1       7.474   3.984   2.150  1.00  0.00     0.094 A 
ATOM      5  N   UNL     1       8.671   4.299   1.583  1.00  0.00    -0.084 NA
ATOM      6  O   UNL     1       8.509   4.530   0.305  1.00  0.00    -0.361 OA
ATOM      7  C   UNL     1       7.247   4.385  -0.030  1.00  0.00     0.146 A 
ATOM      8  C   UNL     1       7.202   3.651   3.570  1.00  0.00     0.071 C 
ATOM      9  C   UNL     1       6.691   4.568  -1.398  1.00  0.00     0.092 C 
ENDBRANCH   1   3
BRANCH   1  10
ATOM     10  N   UNL     1       4.510   2.552   1.244  1.00  0.00    -0.181 NA
BRANCH  10  11
ATOM     11  C   UNL     1       5.090   1.421   1.243  1.00  0.00     0.190 A 
ATOM     12  N   UNL     1       6.054   0.980   2.032  1.00  0.00    -0.330 N 
ATOM     13  S   UNL     1       4.718   0.064   0.081  1.00  0.00    -0.105 S 
ATOM     14  C   UNL     1       6.536  -0.217   1.879  1.00  0.00     0.058 A 
ATOM     15  C   UNL     1       5.991  -0.994   0.857  1.00  0.00     0.095 A 
ATOM     16  H   UNL     1       6.424   1.647   2.803  1.00  0.00     0.169 HD
BRANCH  14  17
ATOM     17  C   UNL     1       7.621  -0.784   2.719  1.00  0.00    -0.001 A 
ATOM     18  C   UNL     1       7.694  -0.552   4.070  1.00  0.00     0.010 A 
ATOM     19  C   UNL     1       8.613  -1.555   2.160  1.00  0.00     0.010 A 
ATOM     20  C   UNL     1       8.695  -1.045   4.878  1.00  0.00     0.001 A 
ATOM     21  C   UNL     1       9.618  -2.052   2.963  1.00  0.00     0.001 A 
ATOM     22  C   UNL     1       9.689  -1.817   4.323  1.00  0.00     0.000 A 
ENDBRANCH  14  17
ENDBRANCH  10  11
ENDBRANCH   1  10
TORSDOF 4
ENDMDL
