MODEL 1
REMARK VINA RESULT:      -3.7      0.000      0.000
REMARK SMILES CCNc1ccc(C=Cc2cncc(OCc3ccncc3)n2)cc1
REMARK SMILES IDX 8 1 7 2 4 3 5 4 25 5 6 6 24 7 3 8 2 10 1 11 9 12 10 13 11 14
REMARK SMILES IDX 23 15 12 16 14 17 13 18 15 19 16 20 17 21 18 22 22 23 19 24
REMARK SMILES IDX 21 25 20 26
REMARK H PARENT 3 9
ROOT
ATOM      1  C   UNL     1       4.694   0.822  -0.946  1.00  0.00     0.010 C 
ENDROOT
BRANCH   1   2
ATOM      2  C   UNL     1       5.308   0.404   0.304  1.00  0.00    -0.025 A 
ATOM      3  C   UNL     1       6.497  -0.344   2.762  1.00  0.00     0.034 A 
ATOM      4  C   UNL     1       6.102   0.957   2.531  1.00  0.00     0.026 A 
ATOM      5  C   UNL     1       6.297  -1.269   1.761  1.00  0.00     0.026 A 
ATOM      6  C   UNL     1       5.526   1.319   1.342  1.00  0.00     0.010 A 
ATOM      7  C   UNL     1       5.714  -0.888   0.565  1.00  0.00     0.010 A 
BRANCH   3   8
ATOM      8  N   UNL     1       7.093  -0.710   4.000  1.00  0.00    -0.385 N 
ATOM      9  H   UNL     1       6.484  -1.213   4.709  1.00  0.00     0.160 HD
BRANCH   8  10
ATOM     10  C   UNL     1       8.462  -0.420   4.298  1.00  0.00     0.109 C 
ATOM     11  C   UNL     1       9.421  -0.692   3.176  1.00  0.00     0.027 C 
ENDBRANCH   8  10
ENDBRANCH   3   8
ENDBRANCH   1   2
BRANCH   1  12
ATOM     12  C   UNL     1       4.339   2.053  -1.234  1.00  0.00     0.031 C 
BRANCH  12  13
ATOM     13  C   UNL     1       5.191   3.215  -1.109  1.00  0.00     0.085 A 
ATOM     14  C   UNL     1       4.693   4.453  -0.741  1.00  0.00     0.139 A 
ATOM     15  N   UNL     1       6.501   3.136  -1.348  1.00  0.00    -0.211 NA
ATOM     16  N   UNL     1       5.531   5.524  -0.635  1.00  0.00    -0.257 NA
ATOM     17  C   UNL     1       7.372   4.151  -1.261  1.00  0.00     0.233 A 
ATOM     18  C   UNL     1       6.838   5.382  -0.888  1.00  0.00     0.179 A 
BRANCH  17  19
ATOM     19  O   UNL     1       8.703   4.087  -1.500  1.00  0.00    -0.472 OA
BRANCH  19  20
ATOM     20  C   UNL     1       9.737   3.545  -0.761  1.00  0.00     0.267 C 
BRANCH  20  21
ATOM     21  C   UNL     1       9.557   3.844   0.678  1.00  0.00    -0.008 A 
ATOM     22  C   UNL     1       9.706   5.097   1.229  1.00  0.00     0.027 A 
ATOM     23  C   UNL     1       9.227   2.781   1.504  1.00  0.00     0.027 A 
ATOM     24  C   UNL     1       9.527   5.289   2.596  1.00  0.00     0.111 A 
ATOM     25  C   UNL     1       9.057   3.009   2.853  1.00  0.00     0.111 A 
ATOM     26  N   UNL     1       9.204   4.247   3.401  1.00  0.00    -0.265 NA
ENDBRANCH  20  21
ENDBRANCH  19  20
ENDBRANCH  17  19
ENDBRANCH  12  13
ENDBRANCH   1  12
TORSDOF 8
ENDMDL
MODEL 2
REMARK VINA RESULT:      -3.3      1.688      2.075
REMARK SMILES CCNc1ccc(C=Cc2cncc(OCc3ccncc3)n2)cc1
REMARK SMILES IDX 8 1 7 2 4 3 5 4 25 5 6 6 24 7 3 8 2 10 1 11 9 12 10 13 11 14
REMARK SMILES IDX 23 15 12 16 14 17 13 18 15 19 16 20 17 21 18 22 22 23 19 24
REMARK SMILES IDX 21 25 20 26
REMARK H PARENT 3 9
ROOT
ATOM      1  C   UNL     1       4.027   0.985  -1.160  1.00  0.00     0.010 C 
ENDROOT
BRANCH   1   2
ATOM      2  C   UNL     1       4.809   0.387  -0.089  1.00  0.00    -0.025 A 
ATOM      3  C   UNL     1       6.333  -0.715   2.028  1.00  0.00     0.034 A 
ATOM      4  C   UNL     1       5.961   0.612   2.037  1.00  0.00     0.026 A 
ATOM      5  C   UNL     1       5.942  -1.490   0.957  1.00  0.00     0.026 A 
ATOM      6  C   UNL     1       5.223   1.146   1.013  1.00  0.00     0.010 A 
ATOM      7  C   UNL     1       5.197  -0.936  -0.070  1.00  0.00     0.010 A 
BRANCH   3   8
ATOM      8  N   UNL     1       7.096  -1.260   3.095  1.00  0.00    -0.385 N 
ATOM      9  H   UNL     1       6.713  -2.119   3.587  1.00  0.00     0.160 HD
BRANCH   8  10
ATOM     10  C   UNL     1       8.341  -0.686   3.507  1.00  0.00     0.109 C 
ATOM     11  C   UNL     1       9.042  -1.426   4.609  1.00  0.00     0.027 C 
ENDBRANCH   8  10
ENDBRANCH   3   8
ENDBRANCH   1   2
BRANCH   1  12
ATOM     12  C   UNL     1       4.477   1.881  -2.008  1.00  0.00     0.031 C 
BRANCH  12  13
ATOM     13  C   UNL     1       4.879   3.227  -1.662  1.00  0.00     0.085 A 
ATOM     14  C   UNL     1       3.959   4.250  -1.508  1.00  0.00     0.139 A 
ATOM     15  N   UNL     1       6.163   3.534  -1.477  1.00  0.00    -0.211 NA
ATOM     16  N   UNL     1       4.381   5.505  -1.181  1.00  0.00    -0.257 NA
ATOM     17  C   UNL     1       6.637   4.747  -1.156  1.00  0.00     0.233 A 
ATOM     18  C   UNL     1       5.685   5.753  -1.009  1.00  0.00     0.179 A 
BRANCH  17  19
ATOM     19  O   UNL     1       7.936   5.076  -0.966  1.00  0.00    -0.472 OA
BRANCH  19  20
ATOM     20  C   UNL     1       9.102   4.429  -1.330  1.00  0.00     0.267 C 
BRANCH  20  21
ATOM     21  C   UNL     1       9.095   3.032  -0.838  1.00  0.00    -0.008 A 
ATOM     22  C   UNL     1       9.725   2.616   0.312  1.00  0.00     0.027 A 
ATOM     23  C   UNL     1       8.410   2.101  -1.604  1.00  0.00     0.027 A 
ATOM     24  C   UNL     1       9.676   1.280   0.697  1.00  0.00     0.111 A 
ATOM     25  C   UNL     1       8.381   0.786  -1.192  1.00  0.00     0.111 A 
ATOM     26  N   UNL     1       9.005   0.371  -0.054  1.00  0.00    -0.265 NA
ENDBRANCH  20  21
ENDBRANCH  19  20
ENDBRANCH  17  19
ENDBRANCH  12  13
ENDBRANCH   1  12
TORSDOF 8
ENDMDL
MODEL 3
REMARK VINA RESULT:      -3.2      1.925      2.595
REMARK SMILES CCNc1ccc(C=Cc2cncc(OCc3ccncc3)n2)cc1
REMARK SMILES IDX 8 1 7 2 4 3 5 4 25 5 6 6 24 7 3 8 2 10 1 11 9 12 10 13 11 14
REMARK SMILES IDX 23 15 12 16 14 17 13 18 15 19 16 20 17 21 18 22 22 23 19 24
REMARK SMILES IDX 21 25 20 26
REMARK H PARENT 3 9
ROOT
ATOM      1  C   UNL     1       4.292  -0.179   0.229  1.00  0.00     0.010 C 
ENDROOT
BRANCH   1   2
ATOM      2  C   UNL     1       5.478  -0.259   1.067  1.00  0.00    -0.025 A 
ATOM      3  C   UNL     1       7.827  -0.404   2.642  1.00  0.00     0.034 A 
ATOM      4  C   UNL     1       7.897  -0.197   1.280  1.00  0.00     0.026 A 
ATOM      5  C   UNL     1       6.581  -0.539   3.214  1.00  0.00     0.026 A 
ATOM      6  C   UNL     1       6.760  -0.126   0.518  1.00  0.00     0.010 A 
ATOM      7  C   UNL     1       5.442  -0.465   2.430  1.00  0.00     0.010 A 
BRANCH   3   8
ATOM      8  N   UNL     1       9.012  -0.474   3.424  1.00  0.00    -0.385 N 
ATOM      9  H   UNL     1       9.373  -1.437   3.686  1.00  0.00     0.160 HD
BRANCH   8  10
ATOM     10  C   UNL     1       9.708   0.701   3.852  1.00  0.00     0.109 C 
ATOM     11  C   UNL     1       8.825   1.843   4.261  1.00  0.00     0.027 C 
ENDBRANCH   8  10
ENDBRANCH   3   8
ENDBRANCH   1   2
BRANCH   1  12
ATOM     12  C   UNL     1       3.520   0.878   0.120  1.00  0.00     0.031 C 
BRANCH  12  13
ATOM     13  C   UNL     1       3.982   2.221  -0.149  1.00  0.00     0.085 A 
ATOM     14  C   UNL     1       3.942   2.769  -1.420  1.00  0.00     0.139 A 
ATOM     15  N   UNL     1       4.470   2.989   0.826  1.00  0.00    -0.211 NA
ATOM     16  N   UNL     1       4.388   4.041  -1.631  1.00  0.00    -0.257 NA
ATOM     17  C   UNL     1       4.922   4.242   0.679  1.00  0.00     0.233 A 
ATOM     18  C   UNL     1       4.868   4.763  -0.612  1.00  0.00     0.179 A 
BRANCH  17  19
ATOM     19  O   UNL     1       5.421   5.034   1.658  1.00  0.00    -0.472 OA
BRANCH  19  20
ATOM     20  C   UNL     1       6.538   5.847   1.691  1.00  0.00     0.267 C 
BRANCH  20  21
ATOM     21  C   UNL     1       7.623   5.271   0.862  1.00  0.00    -0.008 A 
ATOM     22  C   UNL     1       8.070   5.826  -0.315  1.00  0.00     0.027 A 
ATOM     23  C   UNL     1       8.203   4.097   1.316  1.00  0.00     0.027 A 
ATOM     24  C   UNL     1       9.090   5.214  -1.038  1.00  0.00     0.111 A 
ATOM     25  C   UNL     1       9.212   3.519   0.574  1.00  0.00     0.111 A 
ATOM     26  N   UNL     1       9.656   4.065  -0.591  1.00  0.00    -0.265 NA
ENDBRANCH  20  21
ENDBRANCH  19  20
ENDBRANCH  17  19
ENDBRANCH  12  13
ENDBRANCH   1  12
TORSDOF 8
ENDMDL
MODEL 4
REMARK VINA RESULT:      -2.9      1.185      1.782
REMARK SMILES CCNc1ccc(C=Cc2cncc(OCc3ccncc3)n2)cc1
REMARK SMILES IDX 8 1 7 2 4 3 5 4 25 5 6 6 24 7 3 8 2 10 1 11 9 12 10 13 11 14
REMARK SMILES IDX 23 15 12 16 14 17 13 18 15 19 16 20 17 21 18 22 22 23 19 24
REMARK SMILES IDX 21 25 20 26
REMARK H PARENT 3 9
ROOT
ATOM      1  C   UNL     1       4.555   0.367  -0.663  1.00  0.00     0.010 C 
ENDROOT
BRANCH   1   2
ATOM      2  C   UNL     1       5.306  -0.005   0.526  1.00  0.00    -0.025 A 
ATOM      3  C   UNL     1       6.822  -0.747   2.800  1.00  0.00     0.034 A 
ATOM      4  C   UNL     1       7.333  -0.891   1.528  1.00  0.00     0.026 A 
ATOM      5  C   UNL     1       5.550  -0.232   2.932  1.00  0.00     0.026 A 
ATOM      6  C   UNL     1       6.601  -0.531   0.427  1.00  0.00     0.010 A 
ATOM      7  C   UNL     1       4.822   0.127   1.810  1.00  0.00     0.010 A 
BRANCH   3   8
ATOM      8  N   UNL     1       7.590  -1.121   3.935  1.00  0.00    -0.385 N 
ATOM      9  H   UNL     1       7.111  -1.699   4.686  1.00  0.00     0.160 HD
BRANCH   8  10
ATOM     10  C   UNL     1       8.963  -0.744   4.079  1.00  0.00     0.109 C 
ATOM     11  C   UNL     1       9.650  -0.367   2.799  1.00  0.00     0.027 C 
ENDBRANCH   8  10
ENDBRANCH   3   8
ENDBRANCH   1   2
BRANCH   1  12
ATOM     12  C   UNL     1       4.218   1.594  -0.985  1.00  0.00     0.031 C 
BRANCH  12  13
ATOM     13  C   UNL     1       5.061   2.758  -0.825  1.00  0.00     0.085 A 
ATOM     14  C   UNL     1       4.587   4.042  -1.036  1.00  0.00     0.139 A 
ATOM     15  N   UNL     1       6.339   2.637  -0.466  1.00  0.00    -0.211 NA
ATOM     16  N   UNL     1       5.416   5.113  -0.874  1.00  0.00    -0.257 NA
ATOM     17  C   UNL     1       7.200   3.649  -0.292  1.00  0.00     0.233 A 
ATOM     18  C   UNL     1       6.691   4.927  -0.512  1.00  0.00     0.179 A 
BRANCH  17  19
ATOM     19  O   UNL     1       8.500   3.543   0.072  1.00  0.00    -0.472 OA
BRANCH  19  20
ATOM     20  C   UNL     1       9.230   4.196   1.047  1.00  0.00     0.267 C 
BRANCH  20  21
ATOM     21  C   UNL     1       8.575   4.052   2.367  1.00  0.00    -0.008 A 
ATOM     22  C   UNL     1       8.546   2.882   3.090  1.00  0.00     0.027 A 
ATOM     23  C   UNL     1       7.952   5.178   2.885  1.00  0.00     0.027 A 
ATOM     24  C   UNL     1       7.899   2.831   4.321  1.00  0.00     0.111 A 
ATOM     25  C   UNL     1       7.322   5.091   4.108  1.00  0.00     0.111 A 
ATOM     26  N   UNL     1       7.291   3.934   4.825  1.00  0.00    -0.265 NA
ENDBRANCH  20  21
ENDBRANCH  19  20
ENDBRANCH  17  19
ENDBRANCH  12  13
ENDBRANCH   1  12
TORSDOF 8
ENDMDL
MODEL 5
REMARK VINA RESULT:      -2.7      1.152      1.252
REMARK SMILES CCNc1ccc(C=Cc2cncc(OCc3ccncc3)n2)cc1
REMARK SMILES IDX 8 1 7 2 4 3 5 4 25 5 6 6 24 7 3 8 2 10 1 11 9 12 10 13 11 14
REMARK SMILES IDX 23 15 12 16 14 17 13 18 15 19 16 20 17 21 18 22 22 23 19 24
REMARK SMILES IDX 21 25 20 26
REMARK H PARENT 3 9
ROOT
ATOM      1  C   UNL     1       3.961  -0.189  -0.308  1.00  0.00     0.010 C 
ENDROOT
BRANCH   1   2
ATOM      2  C   UNL     1       4.927  -0.464   0.744  1.00  0.00    -0.025 A 
ATOM      3  C   UNL     1       6.769  -0.959   2.837  1.00  0.00     0.034 A 
ATOM      4  C   UNL     1       5.666  -0.157   3.037  1.00  0.00     0.026 A 
ATOM      5  C   UNL     1       6.949  -1.513   1.588  1.00  0.00     0.026 A 
ATOM      6  C   UNL     1       4.774   0.082   2.025  1.00  0.00     0.010 A 
ATOM      7  C   UNL     1       6.039  -1.261   0.575  1.00  0.00     0.010 A 
BRANCH   3   8
ATOM      8  N   UNL     1       7.688  -1.203   3.893  1.00  0.00    -0.385 N 
ATOM      9  H   UNL     1       7.294  -1.531   4.823  1.00  0.00     0.160 HD
BRANCH   8  10
ATOM     10  C   UNL     1       9.098  -1.021   3.729  1.00  0.00     0.109 C 
ATOM     11  C   UNL     1       9.728  -1.891   2.681  1.00  0.00     0.027 C 
ENDBRANCH   8  10
ENDBRANCH   3   8
ENDBRANCH   1   2
BRANCH   1  12
ATOM     12  C   UNL     1       3.712   1.001  -0.806  1.00  0.00     0.031 C 
BRANCH  12  13
ATOM     13  C   UNL     1       4.519   2.180  -0.587  1.00  0.00     0.085 A 
ATOM     14  C   UNL     1       4.116   3.197   0.262  1.00  0.00     0.139 A 
ATOM     15  N   UNL     1       5.692   2.334  -1.202  1.00  0.00    -0.211 NA
ATOM     16  N   UNL     1       4.908   4.293   0.441  1.00  0.00    -0.257 NA
ATOM     17  C   UNL     1       6.511   3.386  -1.068  1.00  0.00     0.233 A 
ATOM     18  C   UNL     1       6.076   4.391  -0.206  1.00  0.00     0.179 A 
BRANCH  17  19
ATOM     19  O   UNL     1       7.703   3.558  -1.685  1.00  0.00    -0.472 OA
BRANCH  19  20
ATOM     20  C   UNL     1       8.887   4.115  -1.241  1.00  0.00     0.267 C 
BRANCH  20  21
ATOM     21  C   UNL     1       9.175   3.683   0.147  1.00  0.00    -0.008 A 
ATOM     22  C   UNL     1       9.234   4.537   1.224  1.00  0.00     0.027 A 
ATOM     23  C   UNL     1       9.402   2.330   0.348  1.00  0.00     0.027 A 
ATOM     24  C   UNL     1       9.519   4.048   2.495  1.00  0.00     0.111 A 
ATOM     25  C   UNL     1       9.681   1.880   1.621  1.00  0.00     0.111 A 
ATOM     26  N   UNL     1       9.740   2.724   2.689  1.00  0.00    -0.265 NA
ENDBRANCH  20  21
ENDBRANCH  19  20
ENDBRANCH  17  19
ENDBRANCH  12  13
ENDBRANCH   1  12
TORSDOF 8
ENDMDL
MODEL 6
REMARK VINA RESULT:      -2.3      1.946      5.143
REMARK SMILES CCNc1ccc(C=Cc2cncc(OCc3ccncc3)n2)cc1
REMARK SMILES IDX 8 1 7 2 4 3 5 4 25 5 6 6 24 7 3 8 2 10 1 11 9 12 10 13 11 14
REMARK SMILES IDX 23 15 12 16 14 17 13 18 15 19 16 20 17 21 18 22 22 23 19 24
REMARK SMILES IDX 21 25 20 26
REMARK H PARENT 3 9
ROOT
ATOM      1  C   UNL     1       4.469  -0.099  -0.168  1.00  0.00     0.010 C 
ENDROOT
BRANCH   1   2
ATOM      2  C   UNL     1       4.945   1.276  -0.173  1.00  0.00    -0.025 A 
ATOM      3  C   UNL     1       5.839   3.962  -0.122  1.00  0.00     0.034 A 
ATOM      4  C   UNL     1       5.058   3.454   0.895  1.00  0.00     0.026 A 
ATOM      5  C   UNL     1       6.171   3.124  -1.164  1.00  0.00     0.026 A 
ATOM      6  C   UNL     1       4.626   2.154   0.870  1.00  0.00     0.010 A 
ATOM      7  C   UNL     1       5.727   1.813  -1.174  1.00  0.00     0.010 A 
BRANCH   3   8
ATOM      8  N   UNL     1       6.284   5.311  -0.086  1.00  0.00    -0.385 N 
ATOM      9  H   UNL     1       5.944   5.921   0.713  1.00  0.00     0.160 HD
BRANCH   8  10
ATOM     10  C   UNL     1       7.160   5.847  -1.084  1.00  0.00     0.109 C 
ATOM     11  C   UNL     1       8.589   5.407  -0.968  1.00  0.00     0.027 C 
ENDBRANCH   8  10
ENDBRANCH   3   8
ENDBRANCH   1   2
BRANCH   1  12
ATOM     12  C   UNL     1       4.993  -1.072   0.541  1.00  0.00     0.031 C 
BRANCH  12  13
ATOM     13  C   UNL     1       6.103  -0.929   1.457  1.00  0.00     0.085 A 
ATOM     14  C   UNL     1       7.274  -1.653   1.308  1.00  0.00     0.139 A 
ATOM     15  N   UNL     1       6.039  -0.088   2.490  1.00  0.00    -0.211 NA
ATOM     16  N   UNL     1       8.297  -1.489   2.195  1.00  0.00    -0.257 NA
ATOM     17  C   UNL     1       7.009   0.115   3.392  1.00  0.00     0.233 A 
ATOM     18  C   UNL     1       8.173  -0.629   3.213  1.00  0.00     0.179 A 
BRANCH  17  19
ATOM     19  O   UNL     1       6.960   0.964   4.445  1.00  0.00    -0.472 OA
BRANCH  19  20
ATOM     20  C   UNL     1       7.938   1.742   5.035  1.00  0.00     0.267 C 
BRANCH  20  21
ATOM     21  C   UNL     1       8.395   2.796   4.100  1.00  0.00    -0.008 A 
ATOM     22  C   UNL     1       8.608   2.593   2.755  1.00  0.00     0.027 A 
ATOM     23  C   UNL     1       8.624   4.054   4.635  1.00  0.00     0.027 A 
ATOM     24  C   UNL     1       9.048   3.638   1.948  1.00  0.00     0.111 A 
ATOM     25  C   UNL     1       9.059   5.066   3.805  1.00  0.00     0.111 A 
ATOM     26  N   UNL     1       9.271   4.868   2.474  1.00  0.00    -0.265 NA
ENDBRANCH  20  21
ENDBRANCH  19  20
ENDBRANCH  17  19
ENDBRANCH  12  13
ENDBRANCH   1  12
TORSDOF 8
ENDMDL
MODEL 7
REMARK VINA RESULT:      -2.1      1.832      5.197
REMARK SMILES CCNc1ccc(C=Cc2cncc(OCc3ccncc3)n2)cc1
REMARK SMILES IDX 8 1 7 2 4 3 5 4 25 5 6 6 24 7 3 8 2 10 1 11 9 12 10 13 11 14
REMARK SMILES IDX 23 15 12 16 14 17 13 18 15 19 16 20 17 21 18 22 22 23 19 24
REMARK SMILES IDX 21 25 20 26
REMARK H PARENT 3 9
ROOT
ATOM      1  C   UNL     1       4.206   0.015   1.094  1.00  0.00     0.010 C 
ENDROOT
BRANCH   1   2
ATOM      2  C   UNL     1       4.431   1.231   0.329  1.00  0.00    -0.025 A 
ATOM      3  C   UNL     1       4.824   3.633  -1.120  1.00  0.00     0.034 A 
ATOM      4  C   UNL     1       3.943   3.578  -0.060  1.00  0.00     0.026 A 
ATOM      5  C   UNL     1       5.507   2.483  -1.454  1.00  0.00     0.026 A 
ATOM      6  C   UNL     1       3.753   2.417   0.641  1.00  0.00     0.010 A 
ATOM      7  C   UNL     1       5.304   1.317  -0.735  1.00  0.00     0.010 A 
BRANCH   3   8
ATOM      8  N   UNL     1       5.015   4.843  -1.840  1.00  0.00    -0.385 N 
ATOM      9  H   UNL     1       4.446   4.985  -2.724  1.00  0.00     0.160 HD
BRANCH   8  10
ATOM     10  C   UNL     1       5.937   5.847  -1.404  1.00  0.00     0.109 C 
ATOM     11  C   UNL     1       6.512   5.622  -0.036  1.00  0.00     0.027 C 
ENDBRANCH   8  10
ENDBRANCH   3   8
ENDBRANCH   1   2
BRANCH   1  12
ATOM     12  C   UNL     1       5.033  -0.472   1.989  1.00  0.00     0.031 C 
BRANCH  12  13
ATOM     13  C   UNL     1       6.442  -0.158   2.079  1.00  0.00     0.085 A 
ATOM     14  C   UNL     1       7.389  -1.119   2.389  1.00  0.00     0.139 A 
ATOM     15  N   UNL     1       6.884   1.081   1.865  1.00  0.00    -0.211 NA
ATOM     16  N   UNL     1       8.708  -0.780   2.464  1.00  0.00    -0.257 NA
ATOM     17  C   UNL     1       8.165   1.473   1.925  1.00  0.00     0.233 A 
ATOM     18  C   UNL     1       9.092   0.482   2.239  1.00  0.00     0.179 A 
BRANCH  17  19
ATOM     19  O   UNL     1       8.630   2.726   1.711  1.00  0.00    -0.472 OA
BRANCH  19  20
ATOM     20  C   UNL     1       9.740   3.182   1.025  1.00  0.00     0.267 C 
BRANCH  20  21
ATOM     21  C   UNL     1       9.526   3.072  -0.437  1.00  0.00    -0.008 A 
ATOM     22  C   UNL     1       9.586   1.889  -1.138  1.00  0.00     0.027 A 
ATOM     23  C   UNL     1       9.256   4.247  -1.121  1.00  0.00     0.027 A 
ATOM     24  C   UNL     1       9.381   1.877  -2.514  1.00  0.00     0.111 A 
ATOM     25  C   UNL     1       9.057   4.197  -2.485  1.00  0.00     0.111 A 
ATOM     26  N   UNL     1       9.117   3.028  -3.181  1.00  0.00    -0.265 NA
ENDBRANCH  20  21
ENDBRANCH  19  20
ENDBRANCH  17  19
ENDBRANCH  12  13
ENDBRANCH   1  12
TORSDOF 8
ENDMDL
MODEL 8
REMARK VINA RESULT:      -1.8      2.097      4.742
REMARK SMILES CCNc1ccc(C=Cc2cncc(OCc3ccncc3)n2)cc1
REMARK SMILES IDX 8 1 7 2 4 3 5 4 25 5 6 6 24 7 3 8 2 10 1 11 9 12 10 13 11 14
REMARK SMILES IDX 23 15 12 16 14 17 13 18 15 19 16 20 17 21 18 22 22 23 19 24
REMARK SMILES IDX 21 25 20 26
REMARK H PARENT 3 9
ROOT
ATOM      1  C   UNL     1       9.478   3.676   3.806  1.00  0.00     0.010 C 
ENDROOT
BRANCH   1   2
ATOM      2  C   UNL     1       8.930   2.429   3.296  1.00  0.00    -0.025 A 
ATOM      3  C   UNL     1       7.830  -0.008   2.364  1.00  0.00     0.034 A 
ATOM      4  C   UNL     1       7.561   0.452   3.636  1.00  0.00     0.026 A 
ATOM      5  C   UNL     1       8.651   0.753   1.560  1.00  0.00     0.026 A 
ATOM      6  C   UNL     1       8.092   1.631   4.087  1.00  0.00     0.010 A 
ATOM      7  C   UNL     1       9.180   1.943   2.030  1.00  0.00     0.010 A 
BRANCH   3   8
ATOM      8  N   UNL     1       7.272  -1.232   1.905  1.00  0.00    -0.385 N 
ATOM      9  H   UNL     1       7.914  -2.075   1.849  1.00  0.00     0.160 HD
BRANCH   8  10
ATOM     10  C   UNL     1       5.896  -1.344   1.529  1.00  0.00     0.109 C 
ATOM     11  C   UNL     1       5.635  -2.243   0.356  1.00  0.00     0.027 C 
ENDBRANCH   8  10
ENDBRANCH   3   8
ENDBRANCH   1   2
BRANCH   1  12
ATOM     12  C   UNL     1       8.810   4.802   3.911  1.00  0.00     0.031 C 
BRANCH  12  13
ATOM     13  C   UNL     1       7.492   5.042   3.367  1.00  0.00     0.085 A 
ATOM     14  C   UNL     1       6.354   4.990   4.154  1.00  0.00     0.139 A 
ATOM     15  N   UNL     1       7.322   5.323   2.075  1.00  0.00    -0.211 NA
ATOM     16  N   UNL     1       5.129   5.222   3.601  1.00  0.00    -0.257 NA
ATOM     17  C   UNL     1       6.147   5.559   1.476  1.00  0.00     0.233 A 
ATOM     18  C   UNL     1       5.022   5.499   2.296  1.00  0.00     0.179 A 
BRANCH  17  19
ATOM     19  O   UNL     1       5.957   5.845   0.167  1.00  0.00    -0.472 OA
BRANCH  19  20
ATOM     20  C   UNL     1       6.329   5.165  -0.978  1.00  0.00     0.267 C 
BRANCH  20  21
ATOM     21  C   UNL     1       5.766   3.795  -0.972  1.00  0.00    -0.008 A 
ATOM     22  C   UNL     1       4.511   3.476  -1.438  1.00  0.00     0.027 A 
ATOM     23  C   UNL     1       6.568   2.789  -0.455  1.00  0.00     0.027 A 
ATOM     24  C   UNL     1       4.055   2.162  -1.387  1.00  0.00     0.111 A 
ATOM     25  C   UNL     1       6.084   1.498  -0.422  1.00  0.00     0.111 A 
ATOM     26  N   UNL     1       4.842   1.180  -0.881  1.00  0.00    -0.265 NA
ENDBRANCH  20  21
ENDBRANCH  19  20
ENDBRANCH  17  19
ENDBRANCH  12  13
ENDBRANCH   1  12
TORSDOF 8
ENDMDL
MODEL 9
REMARK VINA RESULT:      -1.7      1.212      1.678
REMARK SMILES CCNc1ccc(C=Cc2cncc(OCc3ccncc3)n2)cc1
REMARK SMILES IDX 8 1 7 2 4 3 5 4 25 5 6 6 24 7 3 8 2 10 1 11 9 12 10 13 11 14
REMARK SMILES IDX 23 15 12 16 14 17 13 18 15 19 16 20 17 21 18 22 22 23 19 24
REMARK SMILES IDX 21 25 20 26
REMARK H PARENT 3 9
ROOT
ATOM      1  C   UNL     1       3.318   1.113  -1.518  1.00  0.00     0.010 C 
ENDROOT
BRANCH   1   2
ATOM      2  C   UNL     1       4.218   0.530  -0.535  1.00  0.00    -0.025 A 
ATOM      3  C   UNL     1       5.924  -0.586   1.430  1.00  0.00     0.034 A 
ATOM      4  C   UNL     1       4.747   0.038   1.784  1.00  0.00     0.026 A 
ATOM      5  C   UNL     1       6.246  -0.651   0.092  1.00  0.00     0.026 A 
ATOM      6  C   UNL     1       3.921   0.578   0.833  1.00  0.00     0.010 A 
ATOM      7  C   UNL     1       5.401  -0.101  -0.857  1.00  0.00     0.010 A 
BRANCH   3   8
ATOM      8  N   UNL     1       6.774  -1.145   2.423  1.00  0.00    -0.385 N 
ATOM      9  H   UNL     1       6.317  -1.544   3.294  1.00  0.00     0.160 HD
BRANCH   8  10
ATOM     10  C   UNL     1       8.197  -1.177   2.272  1.00  0.00     0.109 C 
ATOM     11  C   UNL     1       8.960  -1.381   3.548  1.00  0.00     0.027 C 
ENDBRANCH   8  10
ENDBRANCH   3   8
ENDBRANCH   1   2
BRANCH   1  12
ATOM     12  C   UNL     1       3.004   2.387  -1.586  1.00  0.00     0.031 C 
BRANCH  12  13
ATOM     13  C   UNL     1       3.941   3.482  -1.465  1.00  0.00     0.085 A 
ATOM     14  C   UNL     1       3.522   4.800  -1.399  1.00  0.00     0.139 A 
ATOM     15  N   UNL     1       5.255   3.261  -1.413  1.00  0.00    -0.211 NA
ATOM     16  N   UNL     1       4.439   5.804  -1.286  1.00  0.00    -0.257 NA
ATOM     17  C   UNL     1       6.201   4.203  -1.302  1.00  0.00     0.233 A 
ATOM     18  C   UNL     1       5.746   5.519  -1.239  1.00  0.00     0.179 A 
BRANCH  17  19
ATOM     19  O   UNL     1       7.537   3.996  -1.249  1.00  0.00    -0.472 OA
BRANCH  19  20
ATOM     20  C   UNL     1       8.273   2.889  -0.872  1.00  0.00     0.267 C 
BRANCH  20  21
ATOM     21  C   UNL     1       8.780   3.051   0.511  1.00  0.00    -0.008 A 
ATOM     22  C   UNL     1       8.887   2.022   1.418  1.00  0.00     0.027 A 
ATOM     23  C   UNL     1       9.158   4.328   0.895  1.00  0.00     0.027 A 
ATOM     24  C   UNL     1       9.366   2.263   2.702  1.00  0.00     0.111 A 
ATOM     25  C   UNL     1       9.629   4.530   2.175  1.00  0.00     0.111 A 
ATOM     26  N   UNL     1       9.735   3.514   3.075  1.00  0.00    -0.265 NA
ENDBRANCH  20  21
ENDBRANCH  19  20
ENDBRANCH  17  19
ENDBRANCH  12  13
ENDBRANCH   1  12
TORSDOF 8
ENDMDL
