MODEL 1
REMARK VINA RESULT:       1.0      0.000      0.000
REMARK SMILES Cc1ccc([N+](=O)[O-])cc1CN1CC(C)C(NC(=O)Cc2ccc(F)cc2)C1
REMARK SMILES IDX 12 1 13 2 14 3 15 4 16 5 28 6 11 7 10 8 2 9 3 10 4 11 9 12
REMARK SMILES IDX 5 13 1 14 6 15 7 16 8 17 17 18 18 19 19 21 20 22 21 23 22 24
REMARK SMILES IDX 27 25 23 26 26 27 24 28 25 29
REMARK H PARENT 17 20
ROOT
ATOM      1  N   UNL     1       5.814   4.448   3.297  1.00  0.00    -0.297 NA
ATOM      2  C   UNL     1       5.486   5.685   2.720  1.00  0.00     0.090 C 
ATOM      3  C   UNL     1       5.064   5.314   1.260  1.00  0.00     0.024 C 
ATOM      4  C   UNL     1       6.391   5.183   0.529  1.00  0.00     0.011 C 
ATOM      5  C   UNL     1       4.533   3.950   1.505  1.00  0.00     0.100 C 
ATOM      6  C   UNL     1       5.698   3.378   2.368  1.00  0.00     0.110 C 
ENDROOT
BRANCH   1   7
ATOM      7  C   UNL     1       6.143   4.259   4.612  1.00  0.00     0.120 C 
BRANCH   7   8
ATOM      8  C   UNL     1       7.385   3.417   4.784  1.00  0.00    -0.024 A 
ATOM      9  C   UNL     1       8.618   3.994   5.034  1.00  0.00    -0.046 A 
ATOM     10  C   UNL     1       9.708   3.185   5.216  1.00  0.00     0.011 A 
ATOM     11  C   UNL     1       9.657   1.801   5.171  1.00  0.00     0.086 A 
ATOM     12  C   UNL     1       7.312   2.038   4.732  1.00  0.00     0.091 A 
ATOM     13  C   UNL     1       8.430   1.231   4.923  1.00  0.00     0.269 A 
ATOM     14  C   UNL     1       8.840   5.461   5.090  1.00  0.00     0.044 C 
BRANCH  13  15
ATOM     15  N   UNL     1       8.341  -0.198   4.864  1.00  0.00     0.062 N 
ATOM     16  O   UNL     1       7.301  -0.765   4.489  1.00  0.00    -0.258 OA
ATOM     17  O   UNL     1       9.407  -1.003   5.215  1.00  0.00    -0.258 OA
ENDBRANCH  13  15
ENDBRANCH   7   8
ENDBRANCH   1   7
BRANCH   5  18
ATOM     18  N   UNL     1       4.267   3.175   0.352  1.00  0.00    -0.351 N 
ATOM     19  C   UNL     1       4.165   3.650  -0.976  1.00  0.00     0.224 C 
ATOM     20  H   UNL     1       4.135   2.126   0.484  1.00  0.00     0.163 HD
ATOM     21  O   UNL     1       4.289   4.871  -1.275  1.00  0.00    -0.275 OA
BRANCH  19  22
ATOM     22  C   UNL     1       3.894   2.643  -2.044  1.00  0.00     0.135 C 
BRANCH  22  23
ATOM     23  C   UNL     1       4.102   1.255  -1.588  1.00  0.00    -0.038 A 
ATOM     24  C   UNL     1       5.449   0.887  -1.401  1.00  0.00     0.007 A 
ATOM     25  C   UNL     1       3.116   0.345  -1.319  1.00  0.00     0.007 A 
ATOM     26  C   UNL     1       5.795  -0.373  -0.951  1.00  0.00     0.039 A 
ATOM     27  C   UNL     1       3.469  -0.888  -0.878  1.00  0.00     0.039 A 
ATOM     28  C   UNL     1       4.804  -1.288  -0.680  1.00  0.00     0.123 A 
ATOM     29  F   UNL     1       5.103  -2.530  -0.236  1.00  0.00    -0.207 F 
ENDBRANCH  22  23
ENDBRANCH  19  22
ENDBRANCH   5  18
TORSDOF 6
ENDMDL
MODEL 2
REMARK VINA RESULT:       2.7      2.928      5.848
REMARK SMILES Cc1ccc([N+](=O)[O-])cc1CN1CC(C)C(NC(=O)Cc2ccc(F)cc2)C1
REMARK SMILES IDX 12 1 13 2 14 3 15 4 16 5 28 6 11 7 10 8 2 9 3 10 4 11 9 12
REMARK SMILES IDX 5 13 1 14 6 15 7 16 8 17 17 18 18 19 19 21 20 22 21 23 22 24
REMARK SMILES IDX 27 25 23 26 26 27 24 28 25 29
REMARK H PARENT 17 20
ROOT
ATOM      1  N   UNL     1       5.140   0.604  -1.262  1.00  0.00    -0.297 NA
ATOM      2  C   UNL     1       3.766   0.435  -1.496  1.00  0.00     0.090 C 
ATOM      3  C   UNL     1       3.101   1.540  -0.611  1.00  0.00     0.024 C 
ATOM      4  C   UNL     1       3.069   0.914   0.775  1.00  0.00     0.011 C 
ATOM      5  C   UNL     1       4.186   2.552  -0.637  1.00  0.00     0.100 C 
ATOM      6  C   UNL     1       5.398   1.629  -0.313  1.00  0.00     0.110 C 
ENDROOT
BRANCH   1   7
ATOM      7  C   UNL     1       6.135  -0.079  -1.909  1.00  0.00     0.120 C 
BRANCH   7   8
ATOM      8  C   UNL     1       7.408  -0.154  -1.098  1.00  0.00    -0.024 A 
ATOM      9  C   UNL     1       8.617   0.278  -1.615  1.00  0.00    -0.046 A 
ATOM     10  C   UNL     1       9.737   0.222  -0.828  1.00  0.00     0.011 A 
ATOM     11  C   UNL     1       9.739  -0.244   0.478  1.00  0.00     0.086 A 
ATOM     12  C   UNL     1       7.388  -0.625   0.200  1.00  0.00     0.091 A 
ATOM     13  C   UNL     1       8.535  -0.672   0.987  1.00  0.00     0.269 A 
ATOM     14  C   UNL     1       8.784   0.783  -3.001  1.00  0.00     0.044 C 
BRANCH  13  15
ATOM     15  N   UNL     1       8.501  -1.167   2.332  1.00  0.00     0.062 N 
ATOM     16  O   UNL     1       8.206  -0.426   3.284  1.00  0.00    -0.258 OA
ATOM     17  O   UNL     1       8.791  -2.485   2.625  1.00  0.00    -0.258 OA
ENDBRANCH  13  15
ENDBRANCH   7   8
ENDBRANCH   1   7
BRANCH   5  18
ATOM     18  N   UNL     1       4.049   3.627   0.272  1.00  0.00    -0.351 N 
ATOM     19  C   UNL     1       3.336   4.828   0.054  1.00  0.00     0.224 C 
ATOM     20  H   UNL     1       4.521   3.531   1.222  1.00  0.00     0.163 HD
ATOM     21  O   UNL     1       2.738   5.080  -1.030  1.00  0.00    -0.275 OA
BRANCH  19  22
ATOM     22  C   UNL     1       3.312   5.822   1.168  1.00  0.00     0.135 C 
BRANCH  22  23
ATOM     23  C   UNL     1       4.431   5.648   2.113  1.00  0.00    -0.038 A 
ATOM     24  C   UNL     1       5.705   5.566   1.517  1.00  0.00     0.007 A 
ATOM     25  C   UNL     1       4.326   5.591   3.477  1.00  0.00     0.007 A 
ATOM     26  C   UNL     1       6.849   5.429   2.280  1.00  0.00     0.039 A 
ATOM     27  C   UNL     1       5.456   5.457   4.213  1.00  0.00     0.039 A 
ATOM     28  C   UNL     1       6.744   5.372   3.651  1.00  0.00     0.123 A 
ATOM     29  F   UNL     1       7.840   5.240   4.430  1.00  0.00    -0.207 F 
ENDBRANCH  22  23
ENDBRANCH  19  22
ENDBRANCH   5  18
TORSDOF 6
ENDMDL
MODEL 3
REMARK VINA RESULT:       3.6      2.966      5.453
REMARK SMILES Cc1ccc([N+](=O)[O-])cc1CN1CC(C)C(NC(=O)Cc2ccc(F)cc2)C1
REMARK SMILES IDX 12 1 13 2 14 3 15 4 16 5 28 6 11 7 10 8 2 9 3 10 4 11 9 12
REMARK SMILES IDX 5 13 1 14 6 15 7 16 8 17 17 18 18 19 19 21 20 22 21 23 22 24
REMARK SMILES IDX 27 25 23 26 26 27 24 28 25 29
REMARK H PARENT 17 20
ROOT
ATOM      1  N   UNL     1       5.763  -0.536  -0.226  1.00  0.00    -0.297 NA
ATOM      2  C   UNL     1       4.651  -0.779  -1.048  1.00  0.00     0.090 C 
ATOM      3  C   UNL     1       3.993   0.631  -1.207  1.00  0.00     0.024 C 
ATOM      4  C   UNL     1       3.176   0.788   0.066  1.00  0.00     0.011 C 
ATOM      5  C   UNL     1       5.207   1.476  -1.085  1.00  0.00     0.100 C 
ATOM      6  C   UNL     1       5.841   0.824   0.179  1.00  0.00     0.110 C 
ENDROOT
BRANCH   1   7
ATOM      7  C   UNL     1       6.712  -1.466   0.104  1.00  0.00     0.120 C 
BRANCH   7   8
ATOM      8  C   UNL     1       7.625  -0.996   1.212  1.00  0.00    -0.024 A 
ATOM      9  C   UNL     1       8.944  -1.409   1.283  1.00  0.00    -0.046 A 
ATOM     10  C   UNL     1       9.740  -0.926   2.287  1.00  0.00     0.011 A 
ATOM     11  C   UNL     1       9.307  -0.031   3.253  1.00  0.00     0.086 A 
ATOM     12  C   UNL     1       7.171  -0.106   2.166  1.00  0.00     0.091 A 
ATOM     13  C   UNL     1       7.996   0.377   3.178  1.00  0.00     0.269 A 
ATOM     14  C   UNL     1       9.551  -2.379   0.338  1.00  0.00     0.044 C 
BRANCH  13  15
ATOM     15  N   UNL     1       7.511   1.298   4.164  1.00  0.00     0.062 N 
ATOM     16  O   UNL     1       7.790   2.507   4.110  1.00  0.00    -0.258 OA
ATOM     17  O   UNL     1       6.713   0.880   5.211  1.00  0.00    -0.258 OA
ENDBRANCH  13  15
ENDBRANCH   7   8
ENDBRANCH   1   7
BRANCH   5  18
ATOM     18  N   UNL     1       4.979   2.864  -0.937  1.00  0.00    -0.351 N 
ATOM     19  C   UNL     1       5.582   3.901  -1.686  1.00  0.00     0.224 C 
ATOM     20  H   UNL     1       4.281   3.172  -0.194  1.00  0.00     0.163 HD
ATOM     21  O   UNL     1       6.437   3.680  -2.592  1.00  0.00    -0.275 OA
BRANCH  19  22
ATOM     22  C   UNL     1       5.177   5.302  -1.368  1.00  0.00     0.135 C 
BRANCH  22  23
ATOM     23  C   UNL     1       4.780   5.475   0.043  1.00  0.00    -0.038 A 
ATOM     24  C   UNL     1       3.398   5.356   0.290  1.00  0.00     0.007 A 
ATOM     25  C   UNL     1       5.630   5.706   1.090  1.00  0.00     0.007 A 
ATOM     26  C   UNL     1       2.884   5.468   1.568  1.00  0.00     0.039 A 
ATOM     27  C   UNL     1       5.112   5.815   2.339  1.00  0.00     0.039 A 
ATOM     28  C   UNL     1       3.738   5.701   2.622  1.00  0.00     0.123 A 
ATOM     29  F   UNL     1       3.272   5.815   3.885  1.00  0.00    -0.207 F 
ENDBRANCH  22  23
ENDBRANCH  19  22
ENDBRANCH   5  18
TORSDOF 6
ENDMDL
