MODEL 1
REMARK VINA RESULT:      -4.1      0.000      0.000
REMARK SMILES COC(=O)C1CC(COC(=O)Cc2ccc(O)cc2)OC1=O
REMARK SMILES IDX 9 1 8 2 7 3 5 4 6 5 21 6 20 7 22 8 3 9 4 10 2 11 1 12 10 13
REMARK SMILES IDX 11 14 12 15 13 16 14 17 19 18 15 19 18 20 16 21 17 22
REMARK H PARENT 17 23
ROOT
ATOM      1  O   UNL     1       7.322   2.805   4.055  1.00  0.00    -0.461 OA
ENDROOT
BRANCH   1   2
ATOM      2  C   UNL     1       8.401   2.139   3.494  1.00  0.00     0.278 C 
BRANCH   2   3
ATOM      3  C   UNL     1       8.097   1.188   2.396  1.00  0.00     0.215 C 
ATOM      4  C   UNL     1       6.624  -0.107   1.186  1.00  0.00     0.212 C 
ATOM      5  C   UNL     1       6.687   0.595   2.522  1.00  0.00     0.076 C 
ATOM      6  C   UNL     1       7.158   0.976   0.305  1.00  0.00     0.320 C 
ATOM      7  O   UNL     1       8.035   1.714   1.107  1.00  0.00    -0.458 OA
ATOM      8  O   UNL     1       6.873   1.174  -0.902  1.00  0.00    -0.251 OA
BRANCH   4   9
ATOM      9  C   UNL     1       5.236  -0.496   0.827  1.00  0.00     0.320 C 
ATOM     10  O   UNL     1       4.979  -1.392  -0.036  1.00  0.00    -0.251 OA
BRANCH   9  11
ATOM     11  O   UNL     1       4.208   0.169   1.482  1.00  0.00    -0.468 OA
ATOM     12  C   UNL     1       3.049   0.613   0.808  1.00  0.00     0.282 C 
ENDBRANCH   9  11
ENDBRANCH   4   9
ENDBRANCH   2   3
ENDBRANCH   1   2
BRANCH   1  13
ATOM     13  C   UNL     1       7.004   4.144   3.941  1.00  0.00     0.310 C 
ATOM     14  O   UNL     1       6.332   4.729   4.817  1.00  0.00    -0.252 OA
BRANCH  13  15
ATOM     15  C   UNL     1       7.505   4.850   2.719  1.00  0.00     0.158 C 
BRANCH  15  16
ATOM     16  C   UNL     1       6.627   4.603   1.559  1.00  0.00    -0.037 A 
ATOM     17  C   UNL     1       5.391   3.994   1.645  1.00  0.00     0.008 A 
ATOM     18  C   UNL     1       7.054   5.001   0.305  1.00  0.00     0.008 A 
ATOM     19  C   UNL     1       4.603   3.788   0.511  1.00  0.00     0.046 A 
ATOM     20  C   UNL     1       6.293   4.809  -0.832  1.00  0.00     0.046 A 
ATOM     21  C   UNL     1       5.045   4.190  -0.725  1.00  0.00     0.115 A 
BRANCH  21  22
ATOM     22  O   UNL     1       4.295   4.005  -1.885  1.00  0.00    -0.508 OA
ATOM     23  H   UNL     1       3.777   4.783  -2.257  1.00  0.00     0.293 HD
ENDBRANCH  21  22
ENDBRANCH  15  16
ENDBRANCH  13  15
ENDBRANCH   1  13
TORSDOF 8
ENDMDL
MODEL 2
REMARK VINA RESULT:      -4.0      1.731      4.296
REMARK SMILES COC(=O)C1CC(COC(=O)Cc2ccc(O)cc2)OC1=O
REMARK SMILES IDX 9 1 8 2 7 3 5 4 6 5 21 6 20 7 22 8 3 9 4 10 2 11 1 12 10 13
REMARK SMILES IDX 11 14 12 15 13 16 14 17 19 18 15 19 18 20 16 21 17 22
REMARK H PARENT 17 23
ROOT
ATOM      1  O   UNL     1       4.276  -0.943  -0.010  1.00  0.00    -0.461 OA
ENDROOT
BRANCH   1   2
ATOM      2  C   UNL     1       5.613  -1.151   0.291  1.00  0.00     0.278 C 
BRANCH   2   3
ATOM      3  C   UNL     1       6.299  -0.073   1.046  1.00  0.00     0.215 C 
ATOM      4  C   UNL     1       7.151   0.808   2.997  1.00  0.00     0.212 C 
ATOM      5  C   UNL     1       6.194  -0.276   2.564  1.00  0.00     0.076 C 
ATOM      6  C   UNL     1       8.276   0.549   2.048  1.00  0.00     0.320 C 
ATOM      7  O   UNL     1       7.683   0.017   0.899  1.00  0.00    -0.458 OA
ATOM      8  O   UNL     1       9.497   0.767   2.249  1.00  0.00    -0.251 OA
BRANCH   4   9
ATOM      9  C   UNL     1       7.562   0.655   4.417  1.00  0.00     0.320 C 
ATOM     10  O   UNL     1       7.505  -0.456   5.029  1.00  0.00    -0.251 OA
BRANCH   9  11
ATOM     11  O   UNL     1       8.021   1.795   5.064  1.00  0.00    -0.468 OA
ATOM     12  C   UNL     1       7.873   3.086   4.508  1.00  0.00     0.282 C 
ENDBRANCH   9  11
ENDBRANCH   4   9
ENDBRANCH   2   3
ENDBRANCH   1   2
BRANCH   1  13
ATOM     13  C   UNL     1       3.551   0.224   0.127  1.00  0.00     0.310 C 
ATOM     14  O   UNL     1       2.779   0.399   1.095  1.00  0.00    -0.252 OA
BRANCH  13  15
ATOM     15  C   UNL     1       3.742   1.261  -0.936  1.00  0.00     0.158 C 
BRANCH  15  16
ATOM     16  C   UNL     1       4.622   2.350  -0.470  1.00  0.00    -0.037 A 
ATOM     17  C   UNL     1       4.441   3.032   0.717  1.00  0.00     0.008 A 
ATOM     18  C   UNL     1       5.696   2.721  -1.259  1.00  0.00     0.008 A 
ATOM     19  C   UNL     1       5.307   4.055   1.106  1.00  0.00     0.046 A 
ATOM     20  C   UNL     1       6.568   3.730  -0.896  1.00  0.00     0.046 A 
ATOM     21  C   UNL     1       6.367   4.409   0.309  1.00  0.00     0.115 A 
BRANCH  21  22
ATOM     22  O   UNL     1       7.258   5.423   0.655  1.00  0.00    -0.508 OA
ATOM     23  H   UNL     1       8.183   5.174   0.960  1.00  0.00     0.293 HD
ENDBRANCH  21  22
ENDBRANCH  15  16
ENDBRANCH  13  15
ENDBRANCH   1  13
TORSDOF 8
ENDMDL
MODEL 3
REMARK VINA RESULT:      -3.9      1.829      4.353
REMARK SMILES COC(=O)C1CC(COC(=O)Cc2ccc(O)cc2)OC1=O
REMARK SMILES IDX 9 1 8 2 7 3 5 4 6 5 21 6 20 7 22 8 3 9 4 10 2 11 1 12 10 13
REMARK SMILES IDX 11 14 12 15 13 16 14 17 19 18 15 19 18 20 16 21 17 22
REMARK H PARENT 17 23
ROOT
ATOM      1  O   UNL     1       4.102  -0.670   0.057  1.00  0.00    -0.461 OA
ENDROOT
BRANCH   1   2
ATOM      2  C   UNL     1       5.445  -1.017   0.057  1.00  0.00     0.278 C 
BRANCH   2   3
ATOM      3  C   UNL     1       6.346  -0.181   0.889  1.00  0.00     0.215 C 
ATOM      4  C   UNL     1       7.065   0.612   2.930  1.00  0.00     0.212 C 
ATOM      5  C   UNL     1       5.855  -0.071   2.339  1.00  0.00     0.076 C 
ATOM      6  C   UNL     1       8.148  -0.219   2.321  1.00  0.00     0.320 C 
ATOM      7  O   UNL     1       7.638  -0.662   1.096  1.00  0.00    -0.458 OA
ATOM      8  O   UNL     1       9.278  -0.464   2.813  1.00  0.00    -0.251 OA
BRANCH   4   9
ATOM      9  C   UNL     1       7.071   0.550   4.414  1.00  0.00     0.320 C 
ATOM     10  O   UNL     1       6.833  -0.521   5.055  1.00  0.00    -0.251 OA
BRANCH   9  11
ATOM     11  O   UNL     1       7.354   1.730   5.090  1.00  0.00    -0.468 OA
ATOM     12  C   UNL     1       8.048   2.798   4.480  1.00  0.00     0.282 C 
ENDBRANCH   9  11
ENDBRANCH   4   9
ENDBRANCH   2   3
ENDBRANCH   1   2
BRANCH   1  13
ATOM     13  C   UNL     1       3.558   0.598   0.045  1.00  0.00     0.310 C 
ATOM     14  O   UNL     1       2.780   0.981   0.946  1.00  0.00    -0.252 OA
BRANCH  13  15
ATOM     15  C   UNL     1       3.950   1.485  -1.097  1.00  0.00     0.158 C 
BRANCH  15  16
ATOM     16  C   UNL     1       4.834   2.578  -0.648  1.00  0.00    -0.037 A 
ATOM     17  C   UNL     1       5.927   3.027  -1.362  1.00  0.00     0.008 A 
ATOM     18  C   UNL     1       4.563   3.200   0.558  1.00  0.00     0.008 A 
ATOM     19  C   UNL     1       6.728   4.066  -0.886  1.00  0.00     0.046 A 
ATOM     20  C   UNL     1       5.340   4.231   1.050  1.00  0.00     0.046 A 
ATOM     21  C   UNL     1       6.443   4.670   0.313  1.00  0.00     0.115 A 
BRANCH  21  22
ATOM     22  O   UNL     1       7.213   5.711   0.829  1.00  0.00    -0.508 OA
ATOM     23  H   UNL     1       8.109   5.903   0.415  1.00  0.00     0.293 HD
ENDBRANCH  21  22
ENDBRANCH  15  16
ENDBRANCH  13  15
ENDBRANCH   1  13
TORSDOF 8
ENDMDL
MODEL 4
REMARK VINA RESULT:      -3.9      1.065      1.396
REMARK SMILES COC(=O)C1CC(COC(=O)Cc2ccc(O)cc2)OC1=O
REMARK SMILES IDX 9 1 8 2 7 3 5 4 6 5 21 6 20 7 22 8 3 9 4 10 2 11 1 12 10 13
REMARK SMILES IDX 11 14 12 15 13 16 14 17 19 18 15 19 18 20 16 21 17 22
REMARK H PARENT 17 23
ROOT
ATOM      1  O   UNL     1       7.206   3.149   3.782  1.00  0.00    -0.461 OA
ENDROOT
BRANCH   1   2
ATOM      2  C   UNL     1       7.870   1.951   4.000  1.00  0.00     0.278 C 
BRANCH   2   3
ATOM      3  C   UNL     1       7.747   0.921   2.939  1.00  0.00     0.215 C 
ATOM      4  C   UNL     1       6.657  -0.009   1.133  1.00  0.00     0.212 C 
ATOM      5  C   UNL     1       6.371   0.955   2.260  1.00  0.00     0.076 C 
ATOM      6  C   UNL     1       7.986   0.510   0.687  1.00  0.00     0.320 C 
ATOM      7  O   UNL     1       8.579   1.056   1.829  1.00  0.00    -0.458 OA
ATOM      8  O   UNL     1       8.462   0.462  -0.475  1.00  0.00    -0.251 OA
BRANCH   4   9
ATOM      9  C   UNL     1       5.631   0.065   0.062  1.00  0.00     0.320 C 
ATOM     10  O   UNL     1       5.765  -0.524  -1.055  1.00  0.00    -0.251 OA
BRANCH   9  11
ATOM     11  O   UNL     1       4.495   0.818   0.332  1.00  0.00    -0.468 OA
ATOM     12  C   UNL     1       3.219   0.230   0.474  1.00  0.00     0.282 C 
ENDBRANCH   9  11
ENDBRANCH   4   9
ENDBRANCH   2   3
ENDBRANCH   1   2
BRANCH   1  13
ATOM     13  C   UNL     1       7.759   4.402   3.613  1.00  0.00     0.310 C 
ATOM     14  O   UNL     1       8.863   4.699   4.118  1.00  0.00    -0.252 OA
BRANCH  13  15
ATOM     15  C   UNL     1       6.971   5.377   2.794  1.00  0.00     0.158 C 
BRANCH  15  16
ATOM     16  C   UNL     1       6.475   4.755   1.550  1.00  0.00    -0.037 A 
ATOM     17  C   UNL     1       7.295   4.228   0.573  1.00  0.00     0.008 A 
ATOM     18  C   UNL     1       5.109   4.690   1.339  1.00  0.00     0.008 A 
ATOM     19  C   UNL     1       6.767   3.651  -0.584  1.00  0.00     0.046 A 
ATOM     20  C   UNL     1       4.562   4.124   0.204  1.00  0.00     0.046 A 
ATOM     21  C   UNL     1       5.409   3.596  -0.775  1.00  0.00     0.115 A 
BRANCH  21  22
ATOM     22  O   UNL     1       4.835   3.030  -1.913  1.00  0.00    -0.508 OA
ATOM     23  H   UNL     1       4.067   3.504  -2.355  1.00  0.00     0.293 HD
ENDBRANCH  21  22
ENDBRANCH  15  16
ENDBRANCH  13  15
ENDBRANCH   1  13
TORSDOF 8
ENDMDL
MODEL 5
REMARK VINA RESULT:      -3.8      2.412      4.541
REMARK SMILES COC(=O)C1CC(COC(=O)Cc2ccc(O)cc2)OC1=O
REMARK SMILES IDX 9 1 8 2 7 3 5 4 6 5 21 6 20 7 22 8 3 9 4 10 2 11 1 12 10 13
REMARK SMILES IDX 11 14 12 15 13 16 14 17 19 18 15 19 18 20 16 21 17 22
REMARK H PARENT 17 23
ROOT
ATOM      1  O   UNL     1       7.730   2.445  -1.277  1.00  0.00    -0.461 OA
ENDROOT
BRANCH   1   2
ATOM      2  C   UNL     1       8.583   2.219  -0.207  1.00  0.00     0.278 C 
BRANCH   2   3
ATOM      3  C   UNL     1       8.416   0.934   0.516  1.00  0.00     0.215 C 
ATOM      4  C   UNL     1       8.535  -0.345   2.430  1.00  0.00     0.212 C 
ATOM      5  C   UNL     1       9.074   0.964   1.903  1.00  0.00     0.076 C 
ATOM      6  C   UNL     1       7.104  -0.215   2.019  1.00  0.00     0.320 C 
ATOM      7  O   UNL     1       7.115   0.570   0.862  1.00  0.00    -0.458 OA
ATOM      8  O   UNL     1       6.106  -0.711   2.599  1.00  0.00    -0.251 OA
BRANCH   4   9
ATOM      9  C   UNL     1       8.693  -0.461   3.902  1.00  0.00     0.320 C 
ATOM     10  O   UNL     1       8.292   0.438   4.706  1.00  0.00    -0.251 OA
BRANCH   9  11
ATOM     11  O   UNL     1       9.309  -1.611   4.379  1.00  0.00    -0.468 OA
ATOM     12  C   UNL     1       9.739  -2.645   3.517  1.00  0.00     0.282 C 
ENDBRANCH   9  11
ENDBRANCH   4   9
ENDBRANCH   2   3
ENDBRANCH   1   2
BRANCH   1  13
ATOM     13  C   UNL     1       7.090   3.621  -1.612  1.00  0.00     0.310 C 
ATOM     14  O   UNL     1       7.708   4.707  -1.657  1.00  0.00    -0.252 OA
BRANCH  13  15
ATOM     15  C   UNL     1       5.628   3.525  -1.919  1.00  0.00     0.158 C 
BRANCH  15  16
ATOM     16  C   UNL     1       4.939   2.627  -0.971  1.00  0.00    -0.037 A 
ATOM     17  C   UNL     1       4.590   2.988   0.315  1.00  0.00     0.008 A 
ATOM     18  C   UNL     1       4.617   1.346  -1.382  1.00  0.00     0.008 A 
ATOM     19  C   UNL     1       3.939   2.095   1.168  1.00  0.00     0.046 A 
ATOM     20  C   UNL     1       3.972   0.444  -0.558  1.00  0.00     0.046 A 
ATOM     21  C   UNL     1       3.628   0.828   0.742  1.00  0.00     0.115 A 
BRANCH  21  22
ATOM     22  O   UNL     1       2.979  -0.099   1.556  1.00  0.00    -0.508 OA
ATOM     23  H   UNL     1       2.527   0.225   2.394  1.00  0.00     0.293 HD
ENDBRANCH  21  22
ENDBRANCH  15  16
ENDBRANCH  13  15
ENDBRANCH   1  13
TORSDOF 8
ENDMDL
MODEL 6
REMARK VINA RESULT:      -3.7      1.540      5.699
REMARK SMILES COC(=O)C1CC(COC(=O)Cc2ccc(O)cc2)OC1=O
REMARK SMILES IDX 9 1 8 2 7 3 5 4 6 5 21 6 20 7 22 8 3 9 4 10 2 11 1 12 10 13
REMARK SMILES IDX 11 14 12 15 13 16 14 17 19 18 15 19 18 20 16 21 17 22
REMARK H PARENT 17 23
ROOT
ATOM      1  O   UNL     1       4.953   1.329  -1.143  1.00  0.00    -0.461 OA
ENDROOT
BRANCH   1   2
ATOM      2  C   UNL     1       4.441   2.609  -1.294  1.00  0.00     0.278 C 
BRANCH   2   3
ATOM      3  C   UNL     1       5.030   3.666  -0.435  1.00  0.00     0.215 C 
ATOM      4  C   UNL     1       5.701   4.468   1.619  1.00  0.00     0.212 C 
ATOM      5  C   UNL     1       4.816   3.380   1.058  1.00  0.00     0.076 C 
ATOM      6  C   UNL     1       6.902   4.294   0.748  1.00  0.00     0.320 C 
ATOM      7  O   UNL     1       6.417   3.806  -0.469  1.00  0.00    -0.458 OA
ATOM      8  O   UNL     1       8.097   4.537   1.054  1.00  0.00    -0.251 OA
BRANCH   4   9
ATOM      9  C   UNL     1       6.007   4.253   3.057  1.00  0.00     0.320 C 
ATOM     10  O   UNL     1       6.844   3.384   3.454  1.00  0.00    -0.251 OA
BRANCH   9  11
ATOM     11  O   UNL     1       5.330   5.052   3.969  1.00  0.00    -0.468 OA
ATOM     12  C   UNL     1       6.005   5.804   4.956  1.00  0.00     0.282 C 
ENDBRANCH   9  11
ENDBRANCH   4   9
ENDBRANCH   2   3
ENDBRANCH   1   2
BRANCH   1  13
ATOM     13  C   UNL     1       4.440   0.300  -0.381  1.00  0.00     0.310 C 
ATOM     14  O   UNL     1       3.240   0.287  -0.027  1.00  0.00    -0.252 OA
BRANCH  13  15
ATOM     15  C   UNL     1       5.391  -0.794  -0.005  1.00  0.00     0.158 C 
BRANCH  15  16
ATOM     16  C   UNL     1       6.304  -0.364   1.072  1.00  0.00    -0.037 A 
ATOM     17  C   UNL     1       7.519   0.253   0.850  1.00  0.00     0.008 A 
ATOM     18  C   UNL     1       5.934  -0.587   2.386  1.00  0.00     0.008 A 
ATOM     19  C   UNL     1       8.342   0.638   1.910  1.00  0.00     0.046 A 
ATOM     20  C   UNL     1       6.730  -0.214   3.452  1.00  0.00     0.046 A 
ATOM     21  C   UNL     1       7.957   0.409   3.207  1.00  0.00     0.115 A 
BRANCH  21  22
ATOM     22  O   UNL     1       8.744   0.775   4.298  1.00  0.00    -0.508 OA
ATOM     23  H   UNL     1       8.803   0.151   5.084  1.00  0.00     0.293 HD
ENDBRANCH  21  22
ENDBRANCH  15  16
ENDBRANCH  13  15
ENDBRANCH   1  13
TORSDOF 8
ENDMDL
MODEL 7
REMARK VINA RESULT:      -3.5      1.979      5.800
REMARK SMILES COC(=O)C1CC(COC(=O)Cc2ccc(O)cc2)OC1=O
REMARK SMILES IDX 9 1 8 2 7 3 5 4 6 5 21 6 20 7 22 8 3 9 4 10 2 11 1 12 10 13
REMARK SMILES IDX 11 14 12 15 13 16 14 17 19 18 15 19 18 20 16 21 17 22
REMARK H PARENT 17 23
ROOT
ATOM      1  O   UNL     1       4.030   0.340  -0.974  1.00  0.00    -0.461 OA
ENDROOT
BRANCH   1   2
ATOM      2  C   UNL     1       4.197   1.615  -1.492  1.00  0.00     0.278 C 
BRANCH   2   3
ATOM      3  C   UNL     1       5.124   2.513  -0.759  1.00  0.00     0.215 C 
ATOM      4  C   UNL     1       7.160   3.565  -0.518  1.00  0.00     0.212 C 
ATOM      5  C   UNL     1       6.563   2.406  -1.281  1.00  0.00     0.076 C 
ATOM      6  C   UNL     1       6.104   4.596  -0.753  1.00  0.00     0.320 C 
ATOM      7  O   UNL     1       4.908   3.884  -0.891  1.00  0.00    -0.458 OA
ATOM      8  O   UNL     1       6.266   5.841  -0.814  1.00  0.00    -0.251 OA
BRANCH   4   9
ATOM      9  C   UNL     1       8.480   3.971  -1.065  1.00  0.00     0.320 C 
ATOM     10  O   UNL     1       8.764   3.889  -2.300  1.00  0.00    -0.251 OA
BRANCH   9  11
ATOM     11  O   UNL     1       9.413   4.456  -0.157  1.00  0.00    -0.468 OA
ATOM     12  C   UNL     1       9.332   4.176   1.226  1.00  0.00     0.282 C 
ENDBRANCH   9  11
ENDBRANCH   4   9
ENDBRANCH   2   3
ENDBRANCH   1   2
BRANCH   1  13
ATOM     13  C   UNL     1       4.135  -0.056   0.344  1.00  0.00     0.310 C 
ATOM     14  O   UNL     1       3.251   0.230   1.181  1.00  0.00    -0.252 OA
BRANCH  13  15
ATOM     15  C   UNL     1       5.355  -0.842   0.713  1.00  0.00     0.158 C 
BRANCH  15  16
ATOM     16  C   UNL     1       6.019  -0.274   1.902  1.00  0.00    -0.037 A 
ATOM     17  C   UNL     1       6.307  -0.998   3.042  1.00  0.00     0.008 A 
ATOM     18  C   UNL     1       6.381   1.061   1.888  1.00  0.00     0.008 A 
ATOM     19  C   UNL     1       6.938  -0.407   4.138  1.00  0.00     0.046 A 
ATOM     20  C   UNL     1       7.008   1.669   2.959  1.00  0.00     0.046 A 
ATOM     21  C   UNL     1       7.290   0.919   4.104  1.00  0.00     0.115 A 
BRANCH  21  22
ATOM     22  O   UNL     1       7.921   1.554   5.173  1.00  0.00    -0.508 OA
ATOM     23  H   UNL     1       7.640   1.321   6.110  1.00  0.00     0.293 HD
ENDBRANCH  21  22
ENDBRANCH  15  16
ENDBRANCH  13  15
ENDBRANCH   1  13
TORSDOF 8
ENDMDL
MODEL 8
REMARK VINA RESULT:      -3.5      1.754      5.510
REMARK SMILES COC(=O)C1CC(COC(=O)Cc2ccc(O)cc2)OC1=O
REMARK SMILES IDX 9 1 8 2 7 3 5 4 6 5 21 6 20 7 22 8 3 9 4 10 2 11 1 12 10 13
REMARK SMILES IDX 11 14 12 15 13 16 14 17 19 18 15 19 18 20 16 21 17 22
REMARK H PARENT 17 23
ROOT
ATOM      1  O   UNL     1       3.792   0.510  -0.809  1.00  0.00    -0.461 OA
ENDROOT
BRANCH   1   2
ATOM      2  C   UNL     1       4.438   1.400  -1.654  1.00  0.00     0.278 C 
BRANCH   2   3
ATOM      3  C   UNL     1       4.754   2.737  -1.095  1.00  0.00     0.215 C 
ATOM      4  C   UNL     1       5.201   4.138   0.679  1.00  0.00     0.212 C 
ATOM      5  C   UNL     1       4.604   2.774   0.432  1.00  0.00     0.076 C 
ATOM      6  C   UNL     1       6.416   4.045  -0.185  1.00  0.00     0.320 C 
ATOM      7  O   UNL     1       6.069   3.182  -1.230  1.00  0.00    -0.458 OA
ATOM      8  O   UNL     1       7.517   4.623  -0.004  1.00  0.00    -0.251 OA
BRANCH   4   9
ATOM      9  C   UNL     1       5.540   4.347   2.111  1.00  0.00     0.320 C 
ATOM     10  O   UNL     1       6.121   3.463   2.812  1.00  0.00    -0.251 OA
BRANCH   9  11
ATOM     11  O   UNL     1       5.190   5.572   2.666  1.00  0.00    -0.468 OA
ATOM     12  C   UNL     1       3.880   5.845   3.119  1.00  0.00     0.282 C 
ENDBRANCH   9  11
ENDBRANCH   4   9
ENDBRANCH   2   3
ENDBRANCH   1   2
BRANCH   1  13
ATOM     13  C   UNL     1       4.314  -0.135   0.295  1.00  0.00     0.310 C 
ATOM     14  O   UNL     1       3.634  -0.304   1.330  1.00  0.00    -0.252 OA
BRANCH  13  15
ATOM     15  C   UNL     1       5.726  -0.619   0.182  1.00  0.00     0.158 C 
BRANCH  15  16
ATOM     16  C   UNL     1       6.519  -0.239   1.368  1.00  0.00    -0.037 A 
ATOM     17  C   UNL     1       6.121  -0.477   2.669  1.00  0.00     0.008 A 
ATOM     18  C   UNL     1       7.735   0.394   1.181  1.00  0.00     0.008 A 
ATOM     19  C   UNL     1       6.914  -0.095   3.752  1.00  0.00     0.046 A 
ATOM     20  C   UNL     1       8.538   0.781   2.236  1.00  0.00     0.046 A 
ATOM     21  C   UNL     1       8.118   0.532   3.545  1.00  0.00     0.115 A 
BRANCH  21  22
ATOM     22  O   UNL     1       8.944   0.933   4.594  1.00  0.00    -0.508 OA
ATOM     23  H   UNL     1       8.964   1.904   4.851  1.00  0.00     0.293 HD
ENDBRANCH  21  22
ENDBRANCH  15  16
ENDBRANCH  13  15
ENDBRANCH   1  13
TORSDOF 8
ENDMDL
MODEL 9
REMARK VINA RESULT:      -3.3      1.796      4.736
REMARK SMILES COC(=O)C1CC(COC(=O)Cc2ccc(O)cc2)OC1=O
REMARK SMILES IDX 9 1 8 2 7 3 5 4 6 5 21 6 20 7 22 8 3 9 4 10 2 11 1 12 10 13
REMARK SMILES IDX 11 14 12 15 13 16 14 17 19 18 15 19 18 20 16 21 17 22
REMARK H PARENT 17 23
ROOT
ATOM      1  O   UNL     1       4.800   0.519   1.342  1.00  0.00    -0.461 OA
ENDROOT
BRANCH   1   2
ATOM      2  C   UNL     1       5.764  -0.467   1.497  1.00  0.00     0.278 C 
BRANCH   2   3
ATOM      3  C   UNL     1       7.060  -0.042   2.083  1.00  0.00     0.215 C 
ATOM      4  C   UNL     1       8.391   1.507   3.150  1.00  0.00     0.212 C 
ATOM      5  C   UNL     1       7.090   1.462   2.384  1.00  0.00     0.076 C 
ATOM      6  C   UNL     1       8.197   0.329   4.049  1.00  0.00     0.320 C 
ATOM      7  O   UNL     1       7.384  -0.558   3.336  1.00  0.00    -0.458 OA
ATOM      8  O   UNL     1       8.670   0.175   5.203  1.00  0.00    -0.251 OA
BRANCH   4   9
ATOM      9  C   UNL     1       8.550   2.776   3.906  1.00  0.00     0.320 C 
ATOM     10  O   UNL     1       7.878   3.038   4.951  1.00  0.00    -0.251 OA
BRANCH   9  11
ATOM     11  O   UNL     1       9.480   3.684   3.418  1.00  0.00    -0.468 OA
ATOM     12  C   UNL     1       9.101   4.936   2.885  1.00  0.00     0.282 C 
ENDBRANCH   9  11
ENDBRANCH   4   9
ENDBRANCH   2   3
ENDBRANCH   1   2
BRANCH   1  13
ATOM     13  C   UNL     1       3.665   0.472   0.559  1.00  0.00     0.310 C 
ATOM     14  O   UNL     1       2.688  -0.244   0.872  1.00  0.00    -0.252 OA
BRANCH  13  15
ATOM     15  C   UNL     1       3.665   1.323  -0.673  1.00  0.00     0.158 C 
BRANCH  15  16
ATOM     16  C   UNL     1       4.583   2.471  -0.532  1.00  0.00    -0.037 A 
ATOM     17  C   UNL     1       5.783   2.583  -1.205  1.00  0.00     0.008 A 
ATOM     18  C   UNL     1       4.233   3.502   0.321  1.00  0.00     0.008 A 
ATOM     19  C   UNL     1       6.612   3.693  -1.032  1.00  0.00     0.046 A 
ATOM     20  C   UNL     1       5.035   4.611   0.509  1.00  0.00     0.046 A 
ATOM     21  C   UNL     1       6.246   4.706  -0.181  1.00  0.00     0.115 A 
BRANCH  21  22
ATOM     22  O   UNL     1       7.040   5.834   0.026  1.00  0.00    -0.508 OA
ATOM     23  H   UNL     1       7.984   5.833  -0.321  1.00  0.00     0.293 HD
ENDBRANCH  21  22
ENDBRANCH  15  16
ENDBRANCH  13  15
ENDBRANCH   1  13
TORSDOF 8
ENDMDL
