MODEL 1
REMARK VINA RESULT:       7.6      0.000      0.000
REMARK SMILES COc1c(-c2[nH]nc3cc(-c4ccccc4)ccc23)sc2ccnn12
REMARK SMILES IDX 3 1 4 2 20 3 21 4 22 5 23 6 24 7 25 8 2 9 1 10 5 11 6 12
REMARK SMILES IDX 19 13 7 14 18 15 8 16 17 17 9 18 10 19 11 21 12 22 16 23
REMARK SMILES IDX 13 24 15 25 14 26
REMARK H PARENT 6 20
ROOT
ATOM      1  C   UNL     1       4.931   4.989  -1.100  1.00  0.00     0.235 A 
ATOM      2  C   UNL     1       4.874   4.853   0.224  1.00  0.00     0.117 A 
ATOM      3  S   UNL     1       3.115   5.223   0.636  1.00  0.00    -0.108 S 
ATOM      4  C   UNL     1       2.705   5.507  -1.124  1.00  0.00     0.123 A 
ATOM      5  C   UNL     1       1.640   5.845  -1.966  1.00  0.00     0.061 A 
ATOM      6  C   UNL     1       2.213   5.845  -3.219  1.00  0.00     0.137 A 
ATOM      7  N   UNL     1       3.486   5.535  -3.076  1.00  0.00    -0.172 NA
ATOM      8  N   UNL     1       3.836   5.316  -1.787  1.00  0.00    -0.189 N 
ENDROOT
BRANCH   1   9
ATOM      9  O   UNL     1       6.137   4.819  -1.832  1.00  0.00    -0.480 OA
ATOM     10  C   UNL     1       7.265   4.133  -1.573  1.00  0.00     0.280 C 
ENDBRANCH   1   9
BRANCH   2  11
ATOM     11  C   UNL     1       5.618   4.379   1.336  1.00  0.00     0.088 A 
ATOM     12  N   UNL     1       5.818   5.054   2.511  1.00  0.00    -0.276 N 
ATOM     13  C   UNL     1       6.213   3.134   1.579  1.00  0.00     0.029 A 
ATOM     14  N   UNL     1       6.468   4.305   3.376  1.00  0.00    -0.175 NA
ATOM     15  C   UNL     1       6.346   1.972   0.851  1.00  0.00     0.013 A 
ATOM     16  C   UNL     1       6.741   3.108   2.860  1.00  0.00     0.093 A 
ATOM     17  C   UNL     1       6.968   0.853   1.354  1.00  0.00     0.009 A 
ATOM     18  C   UNL     1       7.370   2.003   3.392  1.00  0.00     0.039 A 
ATOM     19  C   UNL     1       7.491   0.854   2.637  1.00  0.00    -0.016 A 
ATOM     20  H   UNL     1       5.500   6.036   2.706  1.00  0.00     0.190 HD
BRANCH  19  21
ATOM     21  C   UNL     1       8.162  -0.313   3.210  1.00  0.00    -0.018 A 
ATOM     22  C   UNL     1       9.079  -0.949   2.366  1.00  0.00     0.009 A 
ATOM     23  C   UNL     1       7.917  -0.766   4.491  1.00  0.00     0.009 A 
ATOM     24  C   UNL     1       9.740  -2.068   2.880  1.00  0.00     0.001 A 
ATOM     25  C   UNL     1       8.596  -1.889   4.969  1.00  0.00     0.001 A 
ATOM     26  C   UNL     1       9.507  -2.533   4.157  1.00  0.00     0.000 A 
ENDBRANCH  19  21
ENDBRANCH   2  11
TORSDOF 3
ENDMDL
MODEL 2
REMARK VINA RESULT:       9.9      1.054      1.440
REMARK SMILES COc1c(-c2[nH]nc3cc(-c4ccccc4)ccc23)sc2ccnn12
REMARK SMILES IDX 3 1 4 2 20 3 21 4 22 5 23 6 24 7 25 8 2 9 1 10 5 11 6 12
REMARK SMILES IDX 19 13 7 14 18 15 8 16 17 17 9 18 10 19 11 21 12 22 16 23
REMARK SMILES IDX 13 24 15 25 14 26
REMARK H PARENT 6 20
ROOT
ATOM      1  C   UNL     1       5.955   4.742  -1.438  1.00  0.00     0.235 A 
ATOM      2  C   UNL     1       5.523   4.438  -0.215  1.00  0.00     0.117 A 
ATOM      3  S   UNL     1       3.690   4.592  -0.337  1.00  0.00    -0.108 S 
ATOM      4  C   UNL     1       3.791   5.056  -2.103  1.00  0.00     0.123 A 
ATOM      5  C   UNL     1       2.991   5.398  -3.200  1.00  0.00     0.061 A 
ATOM      6  C   UNL     1       3.907   5.607  -4.208  1.00  0.00     0.137 A 
ATOM      7  N   UNL     1       5.109   5.398  -3.706  1.00  0.00    -0.172 NA
ATOM      8  N   UNL     1       5.083   5.053  -2.397  1.00  0.00    -0.189 N 
ENDROOT
BRANCH   1   9
ATOM      9  O   UNL     1       7.335   4.776  -1.772  1.00  0.00    -0.480 OA
ATOM     10  C   UNL     1       8.210   5.788  -1.909  1.00  0.00     0.280 C 
ENDBRANCH   1   9
BRANCH   2  11
ATOM     11  C   UNL     1       5.955   3.898   1.024  1.00  0.00     0.088 A 
ATOM     12  N   UNL     1       5.666   4.407   2.264  1.00  0.00    -0.276 N 
ATOM     13  C   UNL     1       6.645   2.715   1.321  1.00  0.00     0.029 A 
ATOM     14  N   UNL     1       6.132   3.623   3.212  1.00  0.00    -0.175 NA
ATOM     15  C   UNL     1       7.188   1.702   0.562  1.00  0.00     0.013 A 
ATOM     16  C   UNL     1       6.747   2.562   2.694  1.00  0.00     0.093 A 
ATOM     17  C   UNL     1       7.802   0.606   1.123  1.00  0.00     0.009 A 
ATOM     18  C   UNL     1       7.356   1.477   3.287  1.00  0.00     0.039 A 
ATOM     19  C   UNL     1       7.895   0.479   2.500  1.00  0.00    -0.016 A 
ATOM     20  H   UNL     1       5.144   5.301   2.442  1.00  0.00     0.190 HD
BRANCH  19  21
ATOM     21  C   UNL     1       8.541  -0.668   3.138  1.00  0.00    -0.018 A 
ATOM     22  C   UNL     1       8.507  -0.670   4.538  1.00  0.00     0.009 A 
ATOM     23  C   UNL     1       9.144  -1.683   2.423  1.00  0.00     0.009 A 
ATOM     24  C   UNL     1       9.114  -1.752   5.181  1.00  0.00     0.001 A 
ATOM     25  C   UNL     1       9.740  -2.747   3.103  1.00  0.00     0.001 A 
ATOM     26  C   UNL     1       9.720  -2.773   4.482  1.00  0.00     0.000 A 
ENDBRANCH  19  21
ENDBRANCH   2  11
TORSDOF 3
ENDMDL
