MODEL 1
REMARK VINA RESULT:       2.1      0.000      0.000
REMARK SMILES O=C(NC1CCN(Cc2ccccc2)CC1)c1ccc(F)cc1F
REMARK SMILES IDX 4 1 5 2 6 3 7 4 15 5 16 6 3 7 2 8 1 9 17 11 18 12 23 13
REMARK SMILES IDX 19 14 22 15 20 16 24 17 21 18 8 19 9 20 10 21 14 22 11 23
REMARK SMILES IDX 13 24 12 25
REMARK H PARENT 3 10
ROOT
ATOM      1  C   UNL     1       6.583   3.267   1.040  1.00  0.00     0.084 C 
ATOM      2  C   UNL     1       5.764   4.094   1.981  1.00  0.00     0.040 C 
ATOM      3  C   UNL     1       4.798   4.910   1.141  1.00  0.00     0.087 C 
ATOM      4  N   UNL     1       5.513   5.810   0.250  1.00  0.00    -0.299 NA
ATOM      5  C   UNL     1       6.927   5.636   0.316  1.00  0.00     0.087 C 
ATOM      6  C   UNL     1       7.357   4.194   0.145  1.00  0.00     0.040 C 
ENDROOT
BRANCH   1   7
ATOM      7  N   UNL     1       7.429   2.309   1.713  1.00  0.00    -0.349 N 
ATOM      8  C   UNL     1       6.899   1.131   2.296  1.00  0.00     0.254 C 
ATOM      9  O   UNL     1       5.647   0.979   2.186  1.00  0.00    -0.269 OA
ATOM     10  H   UNL     1       8.441   2.518   1.753  1.00  0.00     0.164 HD
BRANCH   8  11
ATOM     11  C   UNL     1       7.661   0.119   2.986  1.00  0.00     0.075 A 
ATOM     12  C   UNL     1       7.346  -0.142   4.323  1.00  0.00     0.020 A 
ATOM     13  C   UNL     1       8.681  -0.628   2.457  1.00  0.00     0.138 A 
ATOM     14  C   UNL     1       8.018  -1.090   5.064  1.00  0.00     0.040 A 
ATOM     15  C   UNL     1       9.365  -1.592   3.208  1.00  0.00     0.079 A 
ATOM     16  C   UNL     1       9.043  -1.838   4.525  1.00  0.00     0.126 A 
ATOM     17  F   UNL     1       9.069  -0.468   1.194  1.00  0.00    -0.206 F 
ATOM     18  F   UNL     1       9.727  -2.778   5.218  1.00  0.00    -0.207 F 
ENDBRANCH   8  11
ENDBRANCH   1   7
BRANCH   4  19
ATOM     19  C   UNL     1       5.009   5.800  -1.078  1.00  0.00     0.120 C 
BRANCH  19  20
ATOM     20  C   UNL     1       4.570   4.462  -1.527  1.00  0.00    -0.034 A 
ATOM     21  C   UNL     1       3.678   3.785  -0.715  1.00  0.00     0.005 A 
ATOM     22  C   UNL     1       4.981   3.837  -2.668  1.00  0.00     0.005 A 
ATOM     23  C   UNL     1       3.207   2.534  -1.023  1.00  0.00     0.000 A 
ATOM     24  C   UNL     1       4.518   2.589  -2.984  1.00  0.00     0.000 A 
ATOM     25  C   UNL     1       3.625   1.892  -2.188  1.00  0.00     0.000 A 
ENDBRANCH  19  20
ENDBRANCH   4  19
TORSDOF 4
ENDMDL
MODEL 2
REMARK VINA RESULT:       2.4      2.079      2.755
REMARK SMILES O=C(NC1CCN(Cc2ccccc2)CC1)c1ccc(F)cc1F
REMARK SMILES IDX 4 1 5 2 6 3 7 4 15 5 16 6 3 7 2 8 1 9 17 11 18 12 23 13
REMARK SMILES IDX 19 14 22 15 20 16 24 17 21 18 8 19 9 20 10 21 14 22 11 23
REMARK SMILES IDX 13 24 12 25
REMARK H PARENT 3 10
ROOT
ATOM      1  C   UNL     1       8.026   3.077  -0.486  1.00  0.00     0.084 C 
ATOM      2  C   UNL     1       9.210   3.992  -0.510  1.00  0.00     0.040 C 
ATOM      3  C   UNL     1       8.748   5.315  -1.092  1.00  0.00     0.087 C 
ATOM      4  N   UNL     1       8.276   5.148  -2.458  1.00  0.00    -0.299 NA
ATOM      5  C   UNL     1       8.274   3.784  -2.872  1.00  0.00     0.087 C 
ATOM      6  C   UNL     1       7.561   2.867  -1.900  1.00  0.00     0.040 C 
ENDROOT
BRANCH   1   7
ATOM      7  N   UNL     1       8.279   1.835   0.206  1.00  0.00    -0.349 N 
ATOM      8  C   UNL     1       8.695   1.811   1.560  1.00  0.00     0.254 C 
ATOM      9  O   UNL     1       8.827   2.942   2.115  1.00  0.00    -0.269 OA
ATOM     10  H   UNL     1       8.145   0.960  -0.329  1.00  0.00     0.164 HD
BRANCH   8  11
ATOM     11  C   UNL     1       8.971   0.625   2.334  1.00  0.00     0.075 A 
ATOM     12  C   UNL     1       8.948   0.730   3.727  1.00  0.00     0.020 A 
ATOM     13  C   UNL     1       9.259  -0.618   1.834  1.00  0.00     0.138 A 
ATOM     14  C   UNL     1       9.199  -0.347   4.550  1.00  0.00     0.040 A 
ATOM     15  C   UNL     1       9.515  -1.715   2.667  1.00  0.00     0.079 A 
ATOM     16  C   UNL     1       9.488  -1.596   4.040  1.00  0.00     0.126 A 
ATOM     17  F   UNL     1       9.309  -0.840   0.523  1.00  0.00    -0.206 F 
ATOM     18  F   UNL     1       9.740  -2.678   4.812  1.00  0.00    -0.207 F 
ENDBRANCH   8  11
ENDBRANCH   1   7
BRANCH   4  19
ATOM     19  C   UNL     1       7.045   5.812  -2.709  1.00  0.00     0.120 C 
BRANCH  19  20
ATOM     20  C   UNL     1       6.025   5.568  -1.669  1.00  0.00    -0.034 A 
ATOM     21  C   UNL     1       4.706   5.812  -2.008  1.00  0.00     0.005 A 
ATOM     22  C   UNL     1       6.277   5.133  -0.400  1.00  0.00     0.005 A 
ATOM     23  C   UNL     1       3.673   5.631  -1.123  1.00  0.00     0.000 A 
ATOM     24  C   UNL     1       5.255   4.950   0.490  1.00  0.00     0.000 A 
ATOM     25  C   UNL     1       3.928   5.187   0.173  1.00  0.00     0.000 A 
ENDBRANCH  19  20
ENDBRANCH   4  19
TORSDOF 4
ENDMDL
MODEL 3
REMARK VINA RESULT:       3.1      3.080      7.559
REMARK SMILES O=C(NC1CCN(Cc2ccccc2)CC1)c1ccc(F)cc1F
REMARK SMILES IDX 4 1 5 2 6 3 7 4 15 5 16 6 3 7 2 8 1 9 17 11 18 12 23 13
REMARK SMILES IDX 19 14 22 15 20 16 24 17 21 18 8 19 9 20 10 21 14 22 11 23
REMARK SMILES IDX 13 24 12 25
REMARK H PARENT 3 10
ROOT
ATOM      1  C   UNL     1       6.476   0.855   1.598  1.00  0.00     0.084 C 
ATOM      2  C   UNL     1       5.602  -0.248   2.108  1.00  0.00     0.040 C 
ATOM      3  C   UNL     1       6.205  -0.736   3.412  1.00  0.00     0.087 C 
ATOM      4  N   UNL     1       7.539  -1.276   3.200  1.00  0.00    -0.299 NA
ATOM      5  C   UNL     1       7.982  -1.125   1.854  1.00  0.00     0.087 C 
ATOM      6  C   UNL     1       7.845   0.292   1.337  1.00  0.00     0.040 C 
ENDROOT
BRANCH   1   7
ATOM      7  N   UNL     1       5.925   1.533   0.448  1.00  0.00    -0.349 N 
ATOM      8  C   UNL     1       5.672   2.927   0.459  1.00  0.00     0.254 C 
ATOM      9  O   UNL     1       5.959   3.529   1.535  1.00  0.00    -0.269 OA
ATOM     10  H   UNL     1       5.722   0.958  -0.388  1.00  0.00     0.164 HD
BRANCH   8  11
ATOM     11  C   UNL     1       5.126   3.691  -0.637  1.00  0.00     0.075 A 
ATOM     12  C   UNL     1       3.759   3.574  -0.901  1.00  0.00     0.020 A 
ATOM     13  C   UNL     1       5.822   4.536  -1.460  1.00  0.00     0.138 A 
ATOM     14  C   UNL     1       3.146   4.263  -1.926  1.00  0.00     0.040 A 
ATOM     15  C   UNL     1       5.203   5.238  -2.503  1.00  0.00     0.079 A 
ATOM     16  C   UNL     1       3.854   5.112  -2.751  1.00  0.00     0.126 A 
ATOM     17  F   UNL     1       7.130   4.728  -1.305  1.00  0.00    -0.206 F 
ATOM     18  F   UNL     1       3.291   5.807  -3.767  1.00  0.00    -0.207 F 
ENDBRANCH   8  11
ENDBRANCH   1   7
BRANCH   4  19
ATOM     19  C   UNL     1       8.485  -0.818   4.156  1.00  0.00     0.120 C 
BRANCH  19  20
ATOM     20  C   UNL     1       8.698   0.643   4.116  1.00  0.00    -0.034 A 
ATOM     21  C   UNL     1       7.876   1.423   4.912  1.00  0.00     0.005 A 
ATOM     22  C   UNL     1       9.627   1.287   3.354  1.00  0.00     0.005 A 
ATOM     23  C   UNL     1       7.973   2.791   4.951  1.00  0.00     0.000 A 
ATOM     24  C   UNL     1       9.732   2.651   3.385  1.00  0.00     0.000 A 
ATOM     25  C   UNL     1       8.922   3.451   4.172  1.00  0.00     0.000 A 
ENDBRANCH  19  20
ENDBRANCH   4  19
TORSDOF 4
ENDMDL
MODEL 4
REMARK VINA RESULT:       3.2      3.027      7.640
REMARK SMILES O=C(NC1CCN(Cc2ccccc2)CC1)c1ccc(F)cc1F
REMARK SMILES IDX 4 1 5 2 6 3 7 4 15 5 16 6 3 7 2 8 1 9 17 11 18 12 23 13
REMARK SMILES IDX 19 14 22 15 20 16 24 17 21 18 8 19 9 20 10 21 14 22 11 23
REMARK SMILES IDX 13 24 12 25
REMARK H PARENT 3 10
ROOT
ATOM      1  C   UNL     1       6.589  -0.046   1.113  1.00  0.00     0.084 C 
ATOM      2  C   UNL     1       6.045  -1.418   1.363  1.00  0.00     0.040 C 
ATOM      3  C   UNL     1       6.888  -2.047   2.456  1.00  0.00     0.087 C 
ATOM      4  N   UNL     1       8.274  -2.180   2.034  1.00  0.00    -0.299 NA
ATOM      5  C   UNL     1       8.513  -1.604   0.752  1.00  0.00     0.087 C 
ATOM      6  C   UNL     1       8.009  -0.180   0.636  1.00  0.00     0.040 C 
ENDROOT
BRANCH   1   7
ATOM      7  N   UNL     1       5.773   0.737   0.215  1.00  0.00    -0.349 N 
ATOM      8  C   UNL     1       5.860   2.150   0.175  1.00  0.00     0.254 C 
ATOM      9  O   UNL     1       6.694   2.672   0.972  1.00  0.00    -0.269 OA
ATOM     10  H   UNL     1       5.119   0.222  -0.399  1.00  0.00     0.164 HD
BRANCH   8  11
ATOM     11  C   UNL     1       5.089   3.016  -0.684  1.00  0.00     0.075 A 
ATOM     12  C   UNL     1       4.882   4.335  -0.272  1.00  0.00     0.020 A 
ATOM     13  C   UNL     1       4.528   2.671  -1.886  1.00  0.00     0.138 A 
ATOM     14  C   UNL     1       4.159   5.235  -1.024  1.00  0.00     0.040 A 
ATOM     15  C   UNL     1       3.792   3.584  -2.653  1.00  0.00     0.079 A 
ATOM     16  C   UNL     1       3.597   4.882  -2.233  1.00  0.00     0.126 A 
ATOM     17  F   UNL     1       4.657   1.443  -2.381  1.00  0.00    -0.206 F 
ATOM     18  F   UNL     1       2.882   5.735  -3.003  1.00  0.00    -0.207 F 
ENDBRANCH   8  11
ENDBRANCH   1   7
BRANCH   4  19
ATOM     19  C   UNL     1       9.202  -1.753   3.022  1.00  0.00     0.120 C 
BRANCH  19  20
ATOM     20  C   UNL     1       8.873  -0.435   3.603  1.00  0.00    -0.034 A 
ATOM     21  C   UNL     1       7.922  -0.407   4.608  1.00  0.00     0.005 A 
ATOM     22  C   UNL     1       9.422   0.756   3.225  1.00  0.00     0.005 A 
ATOM     23  C   UNL     1       7.528   0.758   5.216  1.00  0.00     0.000 A 
ATOM     24  C   UNL     1       9.035   1.923   3.824  1.00  0.00     0.000 A 
ATOM     25  C   UNL     1       8.086   1.976   4.831  1.00  0.00     0.000 A 
ENDBRANCH  19  20
ENDBRANCH   4  19
TORSDOF 4
ENDMDL
MODEL 5
REMARK VINA RESULT:       3.6      2.569      3.572
REMARK SMILES O=C(NC1CCN(Cc2ccccc2)CC1)c1ccc(F)cc1F
REMARK SMILES IDX 4 1 5 2 6 3 7 4 15 5 16 6 3 7 2 8 1 9 17 11 18 12 23 13
REMARK SMILES IDX 19 14 22 15 20 16 24 17 21 18 8 19 9 20 10 21 14 22 11 23
REMARK SMILES IDX 13 24 12 25
REMARK H PARENT 3 10
ROOT
ATOM      1  C   UNL     1       8.037   2.355   0.567  1.00  0.00     0.084 C 
ATOM      2  C   UNL     1       6.755   3.127   0.574  1.00  0.00     0.040 C 
ATOM      3  C   UNL     1       6.938   4.315  -0.351  1.00  0.00     0.087 C 
ATOM      4  N   UNL     1       7.996   5.191   0.127  1.00  0.00    -0.299 NA
ATOM      5  C   UNL     1       8.657   4.671   1.278  1.00  0.00     0.087 C 
ATOM      6  C   UNL     1       9.127   3.243   1.100  1.00  0.00     0.040 C 
ENDROOT
BRANCH   1   7
ATOM      7  N   UNL     1       7.950   1.098   1.272  1.00  0.00    -0.349 N 
ATOM      8  C   UNL     1       8.781   0.810   2.383  1.00  0.00     0.254 C 
ATOM      9  O   UNL     1       9.596   1.723   2.710  1.00  0.00    -0.269 OA
ATOM     10  H   UNL     1       7.254   0.412   0.931  1.00  0.00     0.164 HD
BRANCH   8  11
ATOM     11  C   UNL     1       8.768  -0.413   3.148  1.00  0.00     0.075 A 
ATOM     12  C   UNL     1       9.678  -1.415   2.800  1.00  0.00     0.020 A 
ATOM     13  C   UNL     1       7.940  -0.699   4.202  1.00  0.00     0.138 A 
ATOM     14  C   UNL     1       9.740  -2.617   3.471  1.00  0.00     0.040 A 
ATOM     15  C   UNL     1       8.001  -1.920   4.887  1.00  0.00     0.079 A 
ATOM     16  C   UNL     1       8.904  -2.898   4.531  1.00  0.00     0.126 A 
ATOM     17  F   UNL     1       7.033   0.178   4.624  1.00  0.00    -0.206 F 
ATOM     18  F   UNL     1       8.933  -4.064   5.217  1.00  0.00    -0.207 F 
ENDBRANCH   8  11
ENDBRANCH   1   7
BRANCH   4  19
ATOM     19  C   UNL     1       8.892   5.596  -0.899  1.00  0.00     0.120 C 
BRANCH  19  20
ATOM     20  C   UNL     1       9.134   4.549  -1.913  1.00  0.00    -0.034 A 
ATOM     21  C   UNL     1       8.930   4.893  -3.237  1.00  0.00     0.005 A 
ATOM     22  C   UNL     1       9.529   3.270  -1.650  1.00  0.00     0.005 A 
ATOM     23  C   UNL     1       9.112   4.003  -4.265  1.00  0.00     0.000 A 
ATOM     24  C   UNL     1       9.714   2.374  -2.668  1.00  0.00     0.000 A 
ATOM     25  C   UNL     1       9.517   2.695  -4.000  1.00  0.00     0.000 A 
ENDBRANCH  19  20
ENDBRANCH   4  19
TORSDOF 4
ENDMDL
MODEL 6
REMARK VINA RESULT:       3.9      3.440      5.833
REMARK SMILES O=C(NC1CCN(Cc2ccccc2)CC1)c1ccc(F)cc1F
REMARK SMILES IDX 4 1 5 2 6 3 7 4 15 5 16 6 3 7 2 8 1 9 17 11 18 12 23 13
REMARK SMILES IDX 19 14 22 15 20 16 24 17 21 18 8 19 9 20 10 21 14 22 11 23
REMARK SMILES IDX 13 24 12 25
REMARK H PARENT 3 10
ROOT
ATOM      1  C   UNL     1       7.361   1.778   3.239  1.00  0.00     0.084 C 
ATOM      2  C   UNL     1       8.087   1.244   4.433  1.00  0.00     0.040 C 
ATOM      3  C   UNL     1       8.733   2.424   5.135  1.00  0.00     0.087 C 
ATOM      4  N   UNL     1       9.703   3.078   4.271  1.00  0.00    -0.299 NA
ATOM      5  C   UNL     1       9.735   2.516   2.961  1.00  0.00     0.087 C 
ATOM      6  C   UNL     1       8.365   2.419   2.321  1.00  0.00     0.040 C 
ENDROOT
BRANCH   1   7
ATOM      7  N   UNL     1       6.552   0.785   2.572  1.00  0.00    -0.349 N 
ATOM      8  C   UNL     1       5.701   1.125   1.491  1.00  0.00     0.254 C 
ATOM      9  O   UNL     1       5.700   2.346   1.155  1.00  0.00    -0.269 OA
ATOM     10  H   UNL     1       6.620  -0.188   2.916  1.00  0.00     0.164 HD
BRANCH   8  11
ATOM     11  C   UNL     1       4.859   0.206   0.764  1.00  0.00     0.075 A 
ATOM     12  C   UNL     1       3.475   0.328   0.912  1.00  0.00     0.020 A 
ATOM     13  C   UNL     1       5.284  -0.792  -0.073  1.00  0.00     0.138 A 
ATOM     14  C   UNL     1       2.590  -0.503   0.259  1.00  0.00     0.040 A 
ATOM     15  C   UNL     1       4.387  -1.638  -0.739  1.00  0.00     0.079 A 
ATOM     16  C   UNL     1       3.025  -1.506  -0.583  1.00  0.00     0.126 A 
ATOM     17  F   UNL     1       6.579  -1.004  -0.293  1.00  0.00    -0.206 F 
ATOM     18  F   UNL     1       2.190  -2.342  -1.243  1.00  0.00    -0.207 F 
ENDBRANCH   8  11
ENDBRANCH   1   7
BRANCH   4  19
ATOM     19  C   UNL     1       9.584   4.495   4.269  1.00  0.00     0.120 C 
BRANCH  19  20
ATOM     20  C   UNL     1       8.194   4.966   4.103  1.00  0.00    -0.034 A 
ATOM     21  C   UNL     1       7.374   4.918   5.217  1.00  0.00     0.005 A 
ATOM     22  C   UNL     1       7.650   5.433   2.942  1.00  0.00     0.005 A 
ATOM     23  C   UNL     1       6.062   5.319   5.182  1.00  0.00     0.000 A 
ATOM     24  C   UNL     1       6.343   5.835   2.897  1.00  0.00     0.000 A 
ATOM     25  C   UNL     1       5.504   5.797   3.997  1.00  0.00     0.000 A 
ENDBRANCH  19  20
ENDBRANCH   4  19
TORSDOF 4
ENDMDL
MODEL 7
REMARK VINA RESULT:       4.3      1.963      3.221
REMARK SMILES O=C(NC1CCN(Cc2ccccc2)CC1)c1ccc(F)cc1F
REMARK SMILES IDX 4 1 5 2 6 3 7 4 15 5 16 6 3 7 2 8 1 9 17 11 18 12 23 13
REMARK SMILES IDX 19 14 22 15 20 16 24 17 21 18 8 19 9 20 10 21 14 22 11 23
REMARK SMILES IDX 13 24 12 25
REMARK H PARENT 3 10
ROOT
ATOM      1  C   UNL     1       6.309   2.296   1.623  1.00  0.00     0.084 C 
ATOM      2  C   UNL     1       5.038   2.308   0.833  1.00  0.00     0.040 C 
ATOM      3  C   UNL     1       4.858   3.713   0.287  1.00  0.00     0.087 C 
ATOM      4  N   UNL     1       4.730   4.679   1.367  1.00  0.00    -0.299 NA
ATOM      5  C   UNL     1       4.900   4.088   2.653  1.00  0.00     0.087 C 
ATOM      6  C   UNL     1       6.165   3.263   2.765  1.00  0.00     0.040 C 
ENDROOT
BRANCH   1   7
ATOM      7  N   UNL     1       6.697   0.975   2.058  1.00  0.00    -0.349 N 
ATOM      8  C   UNL     1       7.605   0.783   3.129  1.00  0.00     0.254 C 
ATOM      9  O   UNL     1       8.046   1.839   3.671  1.00  0.00    -0.269 OA
ATOM     10  H   UNL     1       6.284   0.171   1.555  1.00  0.00     0.164 HD
BRANCH   8  11
ATOM     11  C   UNL     1       8.051  -0.493   3.634  1.00  0.00     0.075 A 
ATOM     12  C   UNL     1       9.232  -0.526   4.381  1.00  0.00     0.020 A 
ATOM     13  C   UNL     1       7.425  -1.698   3.454  1.00  0.00     0.138 A 
ATOM     14  C   UNL     1       9.738  -1.696   4.905  1.00  0.00     0.040 A 
ATOM     15  C   UNL     1       7.936  -2.889   3.985  1.00  0.00     0.079 A 
ATOM     16  C   UNL     1       9.102  -2.906   4.720  1.00  0.00     0.126 A 
ATOM     17  F   UNL     1       6.293  -1.791   2.761  1.00  0.00    -0.206 F 
ATOM     18  F   UNL     1       9.565  -4.077   5.217  1.00  0.00    -0.207 F 
ENDBRANCH   8  11
ENDBRANCH   1   7
BRANCH   4  19
ATOM     19  C   UNL     1       5.525   5.841   1.174  1.00  0.00     0.120 C 
BRANCH  19  20
ATOM     20  C   UNL     1       6.847   5.554   0.582  1.00  0.00    -0.034 A 
ATOM     21  C   UNL     1       7.956   5.769   1.381  1.00  0.00     0.005 A 
ATOM     22  C   UNL     1       7.065   5.105  -0.688  1.00  0.00     0.005 A 
ATOM     23  C   UNL     1       9.236   5.547   0.938  1.00  0.00     0.000 A 
ATOM     24  C   UNL     1       8.338   4.881  -1.139  1.00  0.00     0.000 A 
ATOM     25  C   UNL     1       9.462   5.089  -0.359  1.00  0.00     0.000 A 
ENDBRANCH  19  20
ENDBRANCH   4  19
TORSDOF 4
ENDMDL
MODEL 8
REMARK VINA RESULT:       4.8      3.299      6.985
REMARK SMILES O=C(NC1CCN(Cc2ccccc2)CC1)c1ccc(F)cc1F
REMARK SMILES IDX 4 1 5 2 6 3 7 4 15 5 16 6 3 7 2 8 1 9 17 11 18 12 23 13
REMARK SMILES IDX 19 14 22 15 20 16 24 17 21 18 8 19 9 20 10 21 14 22 11 23
REMARK SMILES IDX 13 24 12 25
REMARK H PARENT 3 10
ROOT
ATOM      1  C   UNL     1       7.018   1.800   2.491  1.00  0.00     0.084 C 
ATOM      2  C   UNL     1       6.952   0.460   3.154  1.00  0.00     0.040 C 
ATOM      3  C   UNL     1       7.774   0.544   4.426  1.00  0.00     0.087 C 
ATOM      4  N   UNL     1       9.168   0.835   4.129  1.00  0.00    -0.299 NA
ATOM      5  C   UNL     1       9.395   1.062   2.740  1.00  0.00     0.087 C 
ATOM      6  C   UNL     1       8.452   2.086   2.143  1.00  0.00     0.040 C 
ENDROOT
BRANCH   1   7
ATOM      7  N   UNL     1       6.136   1.917   1.353  1.00  0.00    -0.349 N 
ATOM      8  C   UNL     1       5.189   0.910   1.042  1.00  0.00     0.254 C 
ATOM      9  O   UNL     1       5.170  -0.087   1.821  1.00  0.00    -0.269 OA
ATOM     10  H   UNL     1       6.225   2.768   0.773  1.00  0.00     0.164 HD
BRANCH   8  11
ATOM     11  C   UNL     1       4.269   0.938  -0.070  1.00  0.00     0.075 A 
ATOM     12  C   UNL     1       4.415   1.953  -1.018  1.00  0.00     0.020 A 
ATOM     13  C   UNL     1       3.247   0.053  -0.295  1.00  0.00     0.138 A 
ATOM     14  C   UNL     1       3.585   2.062  -2.113  1.00  0.00     0.040 A 
ATOM     15  C   UNL     1       2.401   0.160  -1.407  1.00  0.00     0.079 A 
ATOM     16  C   UNL     1       2.558   1.168  -2.334  1.00  0.00     0.126 A 
ATOM     17  F   UNL     1       3.010  -0.956   0.540  1.00  0.00    -0.206 F 
ATOM     18  F   UNL     1       1.721   1.238  -3.396  1.00  0.00    -0.207 F 
ENDBRANCH   8  11
ENDBRANCH   1   7
BRANCH   4  19
ATOM     19  C   UNL     1       9.717   1.848   4.960  1.00  0.00     0.120 C 
BRANCH  19  20
ATOM     20  C   UNL     1       9.135   3.184   4.715  1.00  0.00    -0.034 A 
ATOM     21  C   UNL     1       7.868   3.422   5.216  1.00  0.00     0.005 A 
ATOM     22  C   UNL     1       9.740   4.196   4.029  1.00  0.00     0.005 A 
ATOM     23  C   UNL     1       7.221   4.620   5.043  1.00  0.00     0.000 A 
ATOM     24  C   UNL     1       9.104   5.395   3.850  1.00  0.00     0.000 A 
ATOM     25  C   UNL     1       7.836   5.656   4.342  1.00  0.00     0.000 A 
ENDBRANCH  19  20
ENDBRANCH   4  19
TORSDOF 4
ENDMDL
