MODEL 1
REMARK VINA RESULT:      -4.1      0.000      0.000
REMARK SMILES CSc1ccc(OC(C)(C)C(=O)N2CCOCC2)cc1
REMARK SMILES IDX 7 1 6 2 3 3 4 4 20 5 5 6 19 7 2 8 1 9 8 10 9 11 10 12 11 13
REMARK SMILES IDX 13 14 14 15 18 16 15 17 17 18 16 19 12 20
REMARK H PARENT
ROOT
ATOM      1  O   UNL     1       4.523   1.867   0.744  1.00  0.00    -0.478 OA
ENDROOT
BRANCH   1   2
ATOM      2  C   UNL     1       5.435   2.520   1.546  1.00  0.00     0.120 A 
ATOM      3  C   UNL     1       7.365   3.709   3.221  1.00  0.00     0.007 A 
ATOM      4  C   UNL     1       6.413   4.475   2.556  1.00  0.00     0.019 A 
ATOM      5  C   UNL     1       7.307   2.352   3.014  1.00  0.00     0.019 A 
ATOM      6  C   UNL     1       5.473   3.882   1.740  1.00  0.00     0.047 A 
ATOM      7  C   UNL     1       6.372   1.747   2.198  1.00  0.00     0.047 A 
BRANCH   3   8
ATOM      8  S   UNL     1       8.579   4.486   4.278  1.00  0.00    -0.130 SA
ATOM      9  C   UNL     1       9.480   5.710   3.257  1.00  0.00     0.091 C 
ENDBRANCH   3   8
ENDBRANCH   1   2
BRANCH   1  10
ATOM     10  C   UNL     1       4.688   1.600  -0.637  1.00  0.00     0.181 C 
ATOM     11  C   UNL     1       4.638   2.900  -1.404  1.00  0.00     0.067 C 
ATOM     12  C   UNL     1       3.555   0.704  -1.149  1.00  0.00     0.067 C 
BRANCH  10  13
ATOM     13  C   UNL     1       5.995   0.924  -0.771  1.00  0.00     0.266 C 
ATOM     14  N   UNL     1       7.223   1.534  -1.020  1.00  0.00    -0.335 N 
ATOM     15  C   UNL     1       8.412   0.679  -1.113  1.00  0.00     0.148 C 
ATOM     16  C   UNL     1       7.448   2.950  -1.204  1.00  0.00     0.148 C 
ATOM     17  C   UNL     1       9.509   1.285  -0.264  1.00  0.00     0.181 C 
ATOM     18  C   UNL     1       8.640   3.439  -0.411  1.00  0.00     0.181 C 
ATOM     19  O   UNL     1       9.740   2.605  -0.561  1.00  0.00    -0.378 OA
ATOM     20  O   UNL     1       5.987  -0.345  -0.645  1.00  0.00    -0.270 OA
ENDBRANCH  10  13
ENDBRANCH   1  10
TORSDOF 4
ENDMDL
MODEL 2
REMARK VINA RESULT:      -3.6      2.531      4.443
REMARK SMILES CSc1ccc(OC(C)(C)C(=O)N2CCOCC2)cc1
REMARK SMILES IDX 7 1 6 2 3 3 4 4 20 5 5 6 19 7 2 8 1 9 8 10 9 11 10 12 11 13
REMARK SMILES IDX 13 14 14 15 18 16 15 17 17 18 16 19 12 20
REMARK H PARENT
ROOT
ATOM      1  O   UNL     1       7.348   3.607   0.699  1.00  0.00    -0.478 OA
ENDROOT
BRANCH   1   2
ATOM      2  C   UNL     1       7.804   2.415   1.221  1.00  0.00     0.120 A 
ATOM      3  C   UNL     1       8.841  -0.031   2.164  1.00  0.00     0.007 A 
ATOM      4  C   UNL     1       7.818   0.629   2.837  1.00  0.00     0.019 A 
ATOM      5  C   UNL     1       9.309   0.576   1.023  1.00  0.00     0.019 A 
ATOM      6  C   UNL     1       7.318   1.825   2.365  1.00  0.00     0.047 A 
ATOM      7  C   UNL     1       8.818   1.773   0.542  1.00  0.00     0.047 A 
BRANCH   3   8
ATOM      8  S   UNL     1       9.481  -1.581   2.782  1.00  0.00    -0.130 SA
ATOM      9  C   UNL     1       8.991  -1.705   4.541  1.00  0.00     0.091 C 
ENDBRANCH   3   8
ENDBRANCH   1   2
BRANCH   1  10
ATOM     10  C   UNL     1       6.360   3.739  -0.306  1.00  0.00     0.181 C 
ATOM     11  C   UNL     1       6.854   3.087  -1.576  1.00  0.00     0.067 C 
ATOM     12  C   UNL     1       6.093   5.218  -0.605  1.00  0.00     0.067 C 
BRANCH  10  13
ATOM     13  C   UNL     1       5.147   3.082   0.222  1.00  0.00     0.266 C 
ATOM     14  N   UNL     1       4.685   1.807  -0.104  1.00  0.00    -0.335 N 
ATOM     15  C   UNL     1       3.453   1.335   0.539  1.00  0.00     0.148 C 
ATOM     16  C   UNL     1       5.305   0.889  -1.031  1.00  0.00     0.148 C 
ATOM     17  C   UNL     1       3.690  -0.066   1.062  1.00  0.00     0.181 C 
ATOM     18  C   UNL     1       5.386  -0.513  -0.467  1.00  0.00     0.181 C 
ATOM     19  O   UNL     1       4.184  -0.913   0.102  1.00  0.00    -0.378 OA
ATOM     20  O   UNL     1       4.461   3.757   1.058  1.00  0.00    -0.270 OA
ENDBRANCH  10  13
ENDBRANCH   1  10
TORSDOF 4
ENDMDL
MODEL 3
REMARK VINA RESULT:      -3.6      2.552      3.629
REMARK SMILES CSc1ccc(OC(C)(C)C(=O)N2CCOCC2)cc1
REMARK SMILES IDX 7 1 6 2 3 3 4 4 20 5 5 6 19 7 2 8 1 9 8 10 9 11 10 12 11 13
REMARK SMILES IDX 13 14 14 15 18 16 15 17 17 18 16 19 12 20
REMARK H PARENT
ROOT
ATOM      1  O   UNL     1       5.774   0.567  -0.288  1.00  0.00    -0.478 OA
ENDROOT
BRANCH   1   2
ATOM      2  C   UNL     1       6.460   0.295   0.877  1.00  0.00     0.120 A 
ATOM      3  C   UNL     1       7.741  -0.366   3.299  1.00  0.00     0.007 A 
ATOM      4  C   UNL     1       8.299   0.549   2.411  1.00  0.00     0.019 A 
ATOM      5  C   UNL     1       6.540  -0.921   2.927  1.00  0.00     0.019 A 
ATOM      6  C   UNL     1       7.661   0.864   1.230  1.00  0.00     0.047 A 
ATOM      7  C   UNL     1       5.894  -0.614   1.746  1.00  0.00     0.047 A 
BRANCH   3   8
ATOM      8  S   UNL     1       8.573  -0.769   4.829  1.00  0.00    -0.130 SA
ATOM      9  C   UNL     1       9.695   0.625   5.216  1.00  0.00     0.091 C 
ENDBRANCH   3   8
ENDBRANCH   1   2
BRANCH   1  10
ATOM     10  C   UNL     1       4.825   1.604  -0.459  1.00  0.00     0.181 C 
ATOM     11  C   UNL     1       3.917   1.650   0.747  1.00  0.00     0.067 C 
ATOM     12  C   UNL     1       3.958   1.339  -1.694  1.00  0.00     0.067 C 
BRANCH  10  13
ATOM     13  C   UNL     1       5.603   2.850  -0.619  1.00  0.00     0.266 C 
ATOM     14  N   UNL     1       5.834   3.815   0.361  1.00  0.00    -0.335 N 
ATOM     15  C   UNL     1       6.642   4.986  -0.002  1.00  0.00     0.148 C 
ATOM     16  C   UNL     1       5.348   3.780   1.721  1.00  0.00     0.148 C 
ATOM     17  C   UNL     1       7.684   5.203   1.074  1.00  0.00     0.181 C 
ATOM     18  C   UNL     1       6.431   4.131   2.716  1.00  0.00     0.181 C 
ATOM     19  O   UNL     1       7.141   5.262   2.333  1.00  0.00    -0.378 OA
ATOM     20  O   UNL     1       6.107   3.054  -1.772  1.00  0.00    -0.270 OA
ENDBRANCH  10  13
ENDBRANCH   1  10
TORSDOF 4
ENDMDL
MODEL 4
REMARK VINA RESULT:      -3.5      2.685      4.087
REMARK SMILES CSc1ccc(OC(C)(C)C(=O)N2CCOCC2)cc1
REMARK SMILES IDX 7 1 6 2 3 3 4 4 20 5 5 6 19 7 2 8 1 9 8 10 9 11 10 12 11 13
REMARK SMILES IDX 13 14 14 15 18 16 15 17 17 18 16 19 12 20
REMARK H PARENT
ROOT
ATOM      1  O   UNL     1       4.491   3.277   0.587  1.00  0.00    -0.478 OA
ENDROOT
BRANCH   1   2
ATOM      2  C   UNL     1       5.322   2.214   0.872  1.00  0.00     0.120 A 
ATOM      3  C   UNL     1       7.050   0.110   1.601  1.00  0.00     0.007 A 
ATOM      4  C   UNL     1       6.421   0.133   0.361  1.00  0.00     0.019 A 
ATOM      5  C   UNL     1       6.780   1.164   2.440  1.00  0.00     0.019 A 
ATOM      6  C   UNL     1       5.579   1.169   0.015  1.00  0.00     0.047 A 
ATOM      7  C   UNL     1       5.937   2.206   2.106  1.00  0.00     0.047 A 
BRANCH   3   8
ATOM      8  S   UNL     1       8.142  -1.236   2.041  1.00  0.00    -0.130 SA
ATOM      9  C   UNL     1       9.734  -0.493   2.555  1.00  0.00     0.091 C 
ENDBRANCH   3   8
ENDBRANCH   1   2
BRANCH   1  10
ATOM     10  C   UNL     1       4.785   4.332  -0.309  1.00  0.00     0.181 C 
ATOM     11  C   UNL     1       3.909   5.518   0.015  1.00  0.00     0.067 C 
ATOM     12  C   UNL     1       4.493   3.908  -1.753  1.00  0.00     0.067 C 
BRANCH  10  13
ATOM     13  C   UNL     1       6.221   4.634  -0.131  1.00  0.00     0.266 C 
ATOM     14  N   UNL     1       6.800   5.302   0.948  1.00  0.00    -0.335 N 
ATOM     15  C   UNL     1       8.254   5.497   0.937  1.00  0.00     0.148 C 
ATOM     16  C   UNL     1       6.100   5.834   2.094  1.00  0.00     0.148 C 
ATOM     17  C   UNL     1       8.804   5.094   2.288  1.00  0.00     0.181 C 
ATOM     18  C   UNL     1       6.793   5.482   3.392  1.00  0.00     0.181 C 
ATOM     19  O   UNL     1       8.161   5.714   3.329  1.00  0.00    -0.378 OA
ATOM     20  O   UNL     1       6.998   4.240  -1.061  1.00  0.00    -0.270 OA
ENDBRANCH  10  13
ENDBRANCH   1  10
TORSDOF 4
ENDMDL
MODEL 5
REMARK VINA RESULT:      -3.4      1.795      2.375
REMARK SMILES CSc1ccc(OC(C)(C)C(=O)N2CCOCC2)cc1
REMARK SMILES IDX 7 1 6 2 3 3 4 4 20 5 5 6 19 7 2 8 1 9 8 10 9 11 10 12 11 13
REMARK SMILES IDX 13 14 14 15 18 16 15 17 17 18 16 19 12 20
REMARK H PARENT
ROOT
ATOM      1  O   UNL     1       4.790   1.359   1.180  1.00  0.00    -0.478 OA
ENDROOT
BRANCH   1   2
ATOM      2  C   UNL     1       5.923   1.271   1.962  1.00  0.00     0.120 A 
ATOM      3  C   UNL     1       8.210   0.931   3.573  1.00  0.00     0.007 A 
ATOM      4  C   UNL     1       7.855   2.181   3.075  1.00  0.00     0.019 A 
ATOM      5  C   UNL     1       7.387  -0.116   3.235  1.00  0.00     0.019 A 
ATOM      6  C   UNL     1       6.733   2.334   2.289  1.00  0.00     0.047 A 
ATOM      7  C   UNL     1       6.262   0.026   2.447  1.00  0.00     0.047 A 
BRANCH   3   8
ATOM      8  S   UNL     1       9.666   0.742   4.594  1.00  0.00    -0.130 SA
ATOM      9  C   UNL     1       9.687  -0.990   5.187  1.00  0.00     0.091 C 
ENDBRANCH   3   8
ENDBRANCH   1   2
BRANCH   1  10
ATOM     10  C   UNL     1       4.746   1.841  -0.150  1.00  0.00     0.181 C 
ATOM     11  C   UNL     1       4.376   3.305  -0.136  1.00  0.00     0.067 C 
ATOM     12  C   UNL     1       3.682   1.090  -0.958  1.00  0.00     0.067 C 
BRANCH  10  13
ATOM     13  C   UNL     1       6.093   1.612  -0.715  1.00  0.00     0.266 C 
ATOM     14  N   UNL     1       7.025   2.590  -1.060  1.00  0.00    -0.335 N 
ATOM     15  C   UNL     1       8.315   2.151  -1.604  1.00  0.00     0.148 C 
ATOM     16  C   UNL     1       6.844   4.019  -0.937  1.00  0.00     0.148 C 
ATOM     17  C   UNL     1       9.419   2.894  -0.882  1.00  0.00     0.181 C 
ATOM     18  C   UNL     1       8.050   4.688  -0.316  1.00  0.00     0.181 C 
ATOM     19  O   UNL     1       9.237   4.254  -0.891  1.00  0.00    -0.378 OA
ATOM     20  O   UNL     1       6.425   0.395  -0.901  1.00  0.00    -0.270 OA
ENDBRANCH  10  13
ENDBRANCH   1  10
TORSDOF 4
ENDMDL
MODEL 6
REMARK VINA RESULT:      -3.4      2.519      3.848
REMARK SMILES CSc1ccc(OC(C)(C)C(=O)N2CCOCC2)cc1
REMARK SMILES IDX 7 1 6 2 3 3 4 4 20 5 5 6 19 7 2 8 1 9 8 10 9 11 10 12 11 13
REMARK SMILES IDX 13 14 14 15 18 16 15 17 17 18 16 19 12 20
REMARK H PARENT
ROOT
ATOM      1  O   UNL     1       5.684   1.585  -0.244  1.00  0.00    -0.478 OA
ENDROOT
BRANCH   1   2
ATOM      2  C   UNL     1       6.592   0.917   0.550  1.00  0.00     0.120 A 
ATOM      3  C   UNL     1       8.334  -0.458   2.287  1.00  0.00     0.007 A 
ATOM      4  C   UNL     1       8.748  -0.046   1.025  1.00  0.00     0.019 A 
ATOM      5  C   UNL     1       7.039  -0.156   2.632  1.00  0.00     0.019 A 
ATOM      6  C   UNL     1       7.887   0.627   0.184  1.00  0.00     0.047 A 
ATOM      7  C   UNL     1       6.167   0.516   1.798  1.00  0.00     0.047 A 
BRANCH   3   8
ATOM      8  S   UNL     1       9.458  -1.329   3.371  1.00  0.00    -0.130 SA
ATOM      9  C   UNL     1       8.967  -0.931   5.090  1.00  0.00     0.091 C 
ENDBRANCH   3   8
ENDBRANCH   1   2
BRANCH   1  10
ATOM     10  C   UNL     1       5.495   2.988  -0.274  1.00  0.00     0.181 C 
ATOM     11  C   UNL     1       4.598   3.393   0.871  1.00  0.00     0.067 C 
ATOM     12  C   UNL     1       4.815   3.409  -1.581  1.00  0.00     0.067 C 
BRANCH  10  13
ATOM     13  C   UNL     1       6.842   3.585  -0.166  1.00  0.00     0.266 C 
ATOM     14  N   UNL     1       7.468   4.014   1.004  1.00  0.00    -0.335 N 
ATOM     15  C   UNL     1       8.818   4.579   0.897  1.00  0.00     0.148 C 
ATOM     16  C   UNL     1       6.909   3.962   2.336  1.00  0.00     0.148 C 
ATOM     17  C   UNL     1       9.693   3.936   1.952  1.00  0.00     0.181 C 
ATOM     18  C   UNL     1       7.900   3.421   3.342  1.00  0.00     0.181 C 
ATOM     19  O   UNL     1       9.149   4.012   3.210  1.00  0.00    -0.378 OA
ATOM     20  O   UNL     1       7.488   3.718  -1.257  1.00  0.00    -0.270 OA
ENDBRANCH  10  13
ENDBRANCH   1  10
TORSDOF 4
ENDMDL
MODEL 7
REMARK VINA RESULT:      -3.2      2.378      3.575
REMARK SMILES CSc1ccc(OC(C)(C)C(=O)N2CCOCC2)cc1
REMARK SMILES IDX 7 1 6 2 3 3 4 4 20 5 5 6 19 7 2 8 1 9 8 10 9 11 10 12 11 13
REMARK SMILES IDX 13 14 14 15 18 16 15 17 17 18 16 19 12 20
REMARK H PARENT
ROOT
ATOM      1  O   UNL     1       5.183   1.859   0.051  1.00  0.00    -0.478 OA
ENDROOT
BRANCH   1   2
ATOM      2  C   UNL     1       6.107   1.197   0.831  1.00  0.00     0.120 A 
ATOM      3  C   UNL     1       8.081  -0.189   2.290  1.00  0.00     0.007 A 
ATOM      4  C   UNL     1       6.979   0.378   2.921  1.00  0.00     0.019 A 
ATOM      5  C   UNL     1       8.147  -0.035   0.926  1.00  0.00     0.019 A 
ATOM      6  C   UNL     1       6.019   1.053   2.197  1.00  0.00     0.047 A 
ATOM      7  C   UNL     1       7.193   0.640   0.190  1.00  0.00     0.047 A 
BRANCH   3   8
ATOM      8  S   UNL     1       9.319  -1.063   3.237  1.00  0.00    -0.130 SA
ATOM      9  C   UNL     1       8.852  -0.919   5.001  1.00  0.00     0.091 C 
ENDBRANCH   3   8
ENDBRANCH   1   2
BRANCH   1  10
ATOM     10  C   UNL     1       5.233   3.231  -0.294  1.00  0.00     0.181 C 
ATOM     11  C   UNL     1       4.544   4.039   0.781  1.00  0.00     0.067 C 
ATOM     12  C   UNL     1       4.499   3.479  -1.616  1.00  0.00     0.067 C 
BRANCH  10  13
ATOM     13  C   UNL     1       6.665   3.572  -0.416  1.00  0.00     0.266 C 
ATOM     14  N   UNL     1       7.473   4.126   0.577  1.00  0.00    -0.335 N 
ATOM     15  C   UNL     1       8.881   4.386   0.254  1.00  0.00     0.148 C 
ATOM     16  C   UNL     1       7.056   4.480   1.914  1.00  0.00     0.148 C 
ATOM     17  C   UNL     1       9.740   3.842   1.375  1.00  0.00     0.181 C 
ATOM     18  C   UNL     1       8.042   3.999   2.957  1.00  0.00     0.181 C 
ATOM     19  O   UNL     1       9.352   4.299   2.610  1.00  0.00    -0.378 OA
ATOM     20  O   UNL     1       7.206   3.332  -1.545  1.00  0.00    -0.270 OA
ENDBRANCH  10  13
ENDBRANCH   1  10
TORSDOF 4
ENDMDL
MODEL 8
REMARK VINA RESULT:      -3.2      2.133      3.950
REMARK SMILES CSc1ccc(OC(C)(C)C(=O)N2CCOCC2)cc1
REMARK SMILES IDX 7 1 6 2 3 3 4 4 20 5 5 6 19 7 2 8 1 9 8 10 9 11 10 12 11 13
REMARK SMILES IDX 13 14 14 15 18 16 15 17 17 18 16 19 12 20
REMARK H PARENT
ROOT
ATOM      1  O   UNL     1       7.982   3.723   0.256  1.00  0.00    -0.478 OA
ENDROOT
BRANCH   1   2
ATOM      2  C   UNL     1       8.328   2.986   1.369  1.00  0.00     0.120 A 
ATOM      3  C   UNL     1       8.902   1.539   3.719  1.00  0.00     0.007 A 
ATOM      4  C   UNL     1       9.729   1.465   2.603  1.00  0.00     0.019 A 
ATOM      5  C   UNL     1       7.800   2.352   3.607  1.00  0.00     0.019 A 
ATOM      6  C   UNL     1       9.438   2.178   1.460  1.00  0.00     0.047 A 
ATOM      7  C   UNL     1       7.498   3.070   2.467  1.00  0.00     0.047 A 
BRANCH   3   8
ATOM      8  S   UNL     1       9.287   0.611   5.198  1.00  0.00    -0.130 SA
ATOM      9  C   UNL     1       9.222  -1.164   4.754  1.00  0.00     0.091 C 
ENDBRANCH   3   8
ENDBRANCH   1   2
BRANCH   1  10
ATOM     10  C   UNL     1       7.186   3.260  -0.819  1.00  0.00     0.181 C 
ATOM     11  C   UNL     1       7.870   3.597  -2.123  1.00  0.00     0.067 C 
ATOM     12  C   UNL     1       5.818   3.950  -0.810  1.00  0.00     0.067 C 
BRANCH  10  13
ATOM     13  C   UNL     1       7.041   1.803  -0.626  1.00  0.00     0.266 C 
ATOM     14  N   UNL     1       6.023   1.156   0.074  1.00  0.00    -0.335 N 
ATOM     15  C   UNL     1       6.059  -0.309   0.146  1.00  0.00     0.148 C 
ATOM     16  C   UNL     1       4.917   1.795   0.751  1.00  0.00     0.148 C 
ATOM     17  C   UNL     1       4.683  -0.841  -0.196  1.00  0.00     0.181 C 
ATOM     18  C   UNL     1       3.600   1.116   0.444  1.00  0.00     0.181 C 
ATOM     19  O   UNL     1       3.690  -0.265   0.555  1.00  0.00    -0.378 OA
ATOM     20  O   UNL     1       7.943   1.073  -1.155  1.00  0.00    -0.270 OA
ENDBRANCH  10  13
ENDBRANCH   1  10
TORSDOF 4
ENDMDL
MODEL 9
REMARK VINA RESULT:      -3.1      2.549      3.597
REMARK SMILES CSc1ccc(OC(C)(C)C(=O)N2CCOCC2)cc1
REMARK SMILES IDX 7 1 6 2 3 3 4 4 20 5 5 6 19 7 2 8 1 9 8 10 9 11 10 12 11 13
REMARK SMILES IDX 13 14 14 15 18 16 15 17 17 18 16 19 12 20
REMARK H PARENT
ROOT
ATOM      1  O   UNL     1       4.234   3.268   0.200  1.00  0.00    -0.478 OA
ENDROOT
BRANCH   1   2
ATOM      2  C   UNL     1       4.979   2.258   0.771  1.00  0.00     0.120 A 
ATOM      3  C   UNL     1       6.435   0.090   1.831  1.00  0.00     0.007 A 
ATOM      4  C   UNL     1       6.567   1.373   2.351  1.00  0.00     0.019 A 
ATOM      5  C   UNL     1       5.560  -0.055   0.781  1.00  0.00     0.019 A 
ATOM      6  C   UNL     1       5.849   2.426   1.824  1.00  0.00     0.047 A 
ATOM      7  C   UNL     1       4.837   0.992   0.245  1.00  0.00     0.047 A 
BRANCH   3   8
ATOM      8  S   UNL     1       7.369  -1.269   2.521  1.00  0.00    -0.130 SA
ATOM      9  C   UNL     1       8.455  -0.574   3.820  1.00  0.00     0.091 C 
ENDBRANCH   3   8
ENDBRANCH   1   2
BRANCH   1  10
ATOM     10  C   UNL     1       4.732   4.534  -0.192  1.00  0.00     0.181 C 
ATOM     11  C   UNL     1       4.798   5.437   1.017  1.00  0.00     0.067 C 
ATOM     12  C   UNL     1       3.797   5.184  -1.218  1.00  0.00     0.067 C 
BRANCH  10  13
ATOM     13  C   UNL     1       6.066   4.288  -0.778  1.00  0.00     0.266 C 
ATOM     14  N   UNL     1       7.279   4.803  -0.323  1.00  0.00    -0.335 N 
ATOM     15  C   UNL     1       8.500   4.431  -1.047  1.00  0.00     0.148 C 
ATOM     16  C   UNL     1       7.459   5.686   0.806  1.00  0.00     0.148 C 
ATOM     17  C   UNL     1       9.546   4.003  -0.039  1.00  0.00     0.181 C 
ATOM     18  C   UNL     1       8.606   5.245   1.689  1.00  0.00     0.181 C 
ATOM     19  O   UNL     1       9.739   4.933   0.950  1.00  0.00    -0.378 OA
ATOM     20  O   UNL     1       6.099   3.527  -1.800  1.00  0.00    -0.270 OA
ENDBRANCH  10  13
ENDBRANCH   1  10
TORSDOF 4
ENDMDL
