MODEL 1
REMARK VINA RESULT:      -2.8      0.000      0.000
REMARK SMILES O=C1OC(O)c2cc(CCN3CCN(CC(c4ccccc4)c4ccc(F)cc4)CC3)ccc21
REMARK SMILES IDX 11 1 12 2 13 3 14 4 30 5 31 6 10 7 9 8 8 9 2 10 3 11 34 12
REMARK SMILES IDX 4 13 33 14 6 15 32 16 7 17 1 18 5 19 15 21 16 22 17 23 18 24
REMARK SMILES IDX 22 25 19 26 21 27 20 28 23 29 24 30 29 31 25 32 28 33 26 34
REMARK SMILES IDX 27 35
REMARK H PARENT 5 20
ROOT
ATOM      1  N   UNL     1       4.396   2.462   0.267  1.00  0.00    -0.300 NA
ATOM      2  C   UNL     1       4.032   3.738  -0.285  1.00  0.00     0.100 C 
ATOM      3  C   UNL     1       4.558   4.934   0.406  1.00  0.00     0.100 C 
ATOM      4  N   UNL     1       5.419   4.767   1.518  1.00  0.00    -0.300 NA
ATOM      5  C   UNL     1       5.831   3.474   1.841  1.00  0.00     0.100 C 
ATOM      6  C   UNL     1       5.775   2.452   0.722  1.00  0.00     0.100 C 
ENDROOT
BRANCH   1   7
ATOM      7  C   UNL     1       4.137   1.363  -0.611  1.00  0.00     0.089 C 
BRANCH   7   8
ATOM      8  C   UNL     1       3.832   0.111   0.161  1.00  0.00     0.051 C 
BRANCH   8   9
ATOM      9  C   UNL     1       5.034  -0.464   0.819  1.00  0.00    -0.046 A 
ATOM     10  C   UNL     1       8.380  -1.707   2.998  1.00  0.00     0.341 C 
ATOM     11  O   UNL     1       8.400  -0.713   3.986  1.00  0.00    -0.428 OA
ATOM     12  C   UNL     1       7.262  -1.460   2.106  1.00  0.00     0.069 A 
ATOM     13  C   UNL     1       7.331   0.190   3.789  1.00  0.00     0.341 C 
ATOM     14  C   UNL     1       6.790  -2.127   0.981  1.00  0.00     0.016 A 
ATOM     15  C   UNL     1       6.632  -0.328   2.570  1.00  0.00     0.035 A 
ATOM     16  C   UNL     1       5.660  -1.588   0.358  1.00  0.00     0.004 A 
ATOM     17  C   UNL     1       5.528   0.180   1.947  1.00  0.00     0.014 A 
ATOM     18  O   UNL     1       9.177  -2.676   2.862  1.00  0.00    -0.246 OA
BRANCH  13  19
ATOM     19  O   UNL     1       6.507   0.105   4.908  1.00  0.00    -0.355 OA
ATOM     20  H   UNL     1       6.417   1.033   5.272  1.00  0.00     0.215 HD
ENDBRANCH  13  19
ENDBRANCH   8   9
ENDBRANCH   7   8
ENDBRANCH   1   7
BRANCH   4  21
ATOM     21  C   UNL     1       6.327   5.847   1.611  1.00  0.00     0.097 C 
BRANCH  21  22
ATOM     22  C   UNL     1       7.769   5.567   1.428  1.00  0.00     0.063 C 
BRANCH  22  23
ATOM     23  C   UNL     1       8.143   5.114   0.085  1.00  0.00    -0.039 A 
ATOM     24  C   UNL     1       8.949   5.843  -0.783  1.00  0.00     0.004 A 
ATOM     25  C   UNL     1       7.694   3.896  -0.388  1.00  0.00     0.004 A 
ATOM     26  C   UNL     1       9.261   5.347  -2.036  1.00  0.00     0.000 A 
ATOM     27  C   UNL     1       7.996   3.396  -1.627  1.00  0.00     0.000 A 
ATOM     28  C   UNL     1       8.796   4.126  -2.479  1.00  0.00     0.000 A 
ENDBRANCH  22  23
BRANCH  22  29
ATOM     29  C   UNL     1       8.245   4.569   2.451  1.00  0.00    -0.039 A 
ATOM     30  C   UNL     1       9.261   3.661   2.143  1.00  0.00     0.007 A 
ATOM     31  C   UNL     1       7.715   4.499   3.713  1.00  0.00     0.007 A 
ATOM     32  C   UNL     1       9.723   2.736   3.042  1.00  0.00     0.039 A 
ATOM     33  C   UNL     1       8.188   3.557   4.620  1.00  0.00     0.039 A 
ATOM     34  C   UNL     1       9.183   2.675   4.304  1.00  0.00     0.123 A 
ATOM     35  F   UNL     1       9.620   1.772   5.209  1.00  0.00    -0.207 F 
ENDBRANCH  22  29
ENDBRANCH  21  22
ENDBRANCH   4  21
TORSDOF 8
ENDMDL
