MODEL 1
REMARK VINA RESULT:      -4.3      0.000      0.000
REMARK SMILES COc1cc(OC)c2[nH]c(C(O)(C(C)C)C(F)(F)F)cc2c1
REMARK SMILES IDX 3 1 4 2 5 3 8 4 9 5 10 6 20 7 21 8 22 9 2 11 1 12 6 13 7 14
REMARK SMILES IDX 11 15 12 16 13 18 14 19 15 20 16 21 17 22 18 23 19 24
REMARK H PARENT 9 10 12 17
ROOT
ATOM      1  C   UNL     1       7.955  -0.538   2.760  1.00  0.00     0.123 A 
ATOM      2  C   UNL     1       6.592  -0.766   2.681  1.00  0.00     0.095 A 
ATOM      3  C   UNL     1       5.769   0.026   1.915  1.00  0.00     0.146 A 
ATOM      4  C   UNL     1       6.347   1.080   1.209  1.00  0.00     0.089 A 
ATOM      5  N   UNL     1       5.764   1.979   0.405  1.00  0.00    -0.353 N 
ATOM      6  C   UNL     1       6.701   2.844  -0.086  1.00  0.00     0.058 A 
ATOM      7  C   UNL     1       7.892   2.437   0.450  1.00  0.00     0.035 A 
ATOM      8  C   UNL     1       7.684   1.336   1.261  1.00  0.00     0.007 A 
ATOM      9  C   UNL     1       8.489   0.523   2.041  1.00  0.00     0.057 A 
ATOM     10  H   UNL     1       4.752   2.031   0.176  1.00  0.00     0.166 HD
ENDROOT
BRANCH   1  11
ATOM     11  O   UNL     1       8.730  -1.374   3.550  1.00  0.00    -0.497 OA
ATOM     12  C   UNL     1       9.052  -0.922   4.855  1.00  0.00     0.278 C 
ENDBRANCH   1  11
BRANCH   3  13
ATOM     13  O   UNL     1       4.419  -0.197   1.833  1.00  0.00    -0.494 OA
ATOM     14  C   UNL     1       3.604   0.045   0.707  1.00  0.00     0.278 C 
ENDBRANCH   3  13
BRANCH   6  15
ATOM     15  C   UNL     1       6.433   3.972  -1.008  1.00  0.00     0.202 C 
BRANCH  15  16
ATOM     16  O   UNL     1       6.810   3.543  -2.278  1.00  0.00    -0.375 OA
ATOM     17  H   UNL     1       6.416   4.207  -2.923  1.00  0.00     0.212 HD
ENDBRANCH  15  16
BRANCH  15  18
ATOM     18  C   UNL     1       7.274   5.141  -0.563  1.00  0.00     0.030 C 
ATOM     19  C   UNL     1       7.250   5.407   0.904  1.00  0.00     0.011 C 
ATOM     20  C   UNL     1       8.679   5.078  -1.078  1.00  0.00     0.011 C 
ENDBRANCH  15  18
BRANCH  15  21
ATOM     21  C   UNL     1       4.962   4.273  -1.064  1.00  0.00     0.423 C 
ATOM     22  F   UNL     1       4.402   3.402  -1.979  1.00  0.00    -0.167 F 
ATOM     23  F   UNL     1       4.298   4.138   0.115  1.00  0.00    -0.167 F 
ATOM     24  F   UNL     1       4.796   5.564  -1.585  1.00  0.00    -0.167 F 
ENDBRANCH  15  21
ENDBRANCH   6  15
TORSDOF 6
ENDMDL
MODEL 2
REMARK VINA RESULT:      -4.3      3.024      5.994
REMARK SMILES COc1cc(OC)c2[nH]c(C(O)(C(C)C)C(F)(F)F)cc2c1
REMARK SMILES IDX 3 1 4 2 5 3 8 4 9 5 10 6 20 7 21 8 22 9 2 11 1 12 6 13 7 14
REMARK SMILES IDX 11 15 12 16 13 18 14 19 15 20 16 21 17 22 18 23 19 24
REMARK H PARENT 9 10 12 17
ROOT
ATOM      1  C   UNL     1       9.040   2.243  -2.901  1.00  0.00     0.123 A 
ATOM      2  C   UNL     1       8.398   3.416  -2.545  1.00  0.00     0.095 A 
ATOM      3  C   UNL     1       7.766   3.556  -1.332  1.00  0.00     0.146 A 
ATOM      4  C   UNL     1       7.786   2.474  -0.454  1.00  0.00     0.089 A 
ATOM      5  N   UNL     1       7.250   2.366   0.769  1.00  0.00    -0.353 N 
ATOM      6  C   UNL     1       7.505   1.127   1.283  1.00  0.00     0.058 A 
ATOM      7  C   UNL     1       8.226   0.472   0.323  1.00  0.00     0.035 A 
ATOM      8  C   UNL     1       8.408   1.302  -0.768  1.00  0.00     0.007 A 
ATOM      9  C   UNL     1       9.036   1.188  -1.996  1.00  0.00     0.057 A 
ATOM     10  H   UNL     1       6.715   3.102   1.270  1.00  0.00     0.166 HD
ENDROOT
BRANCH   1  11
ATOM     11  O   UNL     1       9.659   2.166  -4.140  1.00  0.00    -0.497 OA
ATOM     12  C   UNL     1       9.734   3.357  -4.904  1.00  0.00     0.278 C 
ENDBRANCH   1  11
BRANCH   3  13
ATOM     13  O   UNL     1       7.129   4.716  -0.975  1.00  0.00    -0.494 OA
ATOM     14  C   UNL     1       7.673   5.756  -0.193  1.00  0.00     0.278 C 
ENDBRANCH   3  13
BRANCH   6  15
ATOM     15  C   UNL     1       7.070   0.640   2.614  1.00  0.00     0.202 C 
BRANCH  15  16
ATOM     16  O   UNL     1       6.180   1.589   3.111  1.00  0.00    -0.375 OA
ATOM     17  H   UNL     1       6.226   1.513   4.113  1.00  0.00     0.212 HD
ENDBRANCH  15  16
BRANCH  15  18
ATOM     18  C   UNL     1       8.293   0.538   3.490  1.00  0.00     0.030 C 
ATOM     19  C   UNL     1       9.562   0.982   2.846  1.00  0.00     0.011 C 
ATOM     20  C   UNL     1       8.109   1.187   4.827  1.00  0.00     0.011 C 
ENDBRANCH  15  18
BRANCH  15  21
ATOM     21  C   UNL     1       6.311  -0.649   2.484  1.00  0.00     0.423 C 
ATOM     22  F   UNL     1       5.378  -0.475   1.480  1.00  0.00    -0.167 F 
ATOM     23  F   UNL     1       7.066  -1.739   2.180  1.00  0.00    -0.167 F 
ATOM     24  F   UNL     1       5.591  -0.858   3.670  1.00  0.00    -0.167 F 
ENDBRANCH  15  21
ENDBRANCH   6  15
TORSDOF 6
ENDMDL
MODEL 3
REMARK VINA RESULT:      -4.3      2.914      6.227
REMARK SMILES COc1cc(OC)c2[nH]c(C(O)(C(C)C)C(F)(F)F)cc2c1
REMARK SMILES IDX 3 1 4 2 5 3 8 4 9 5 10 6 20 7 21 8 22 9 2 11 1 12 6 13 7 14
REMARK SMILES IDX 11 15 12 16 13 18 14 19 15 20 16 21 17 22 18 23 19 24
REMARK H PARENT 9 10 12 17
ROOT
ATOM      1  C   UNL     1       5.674   4.493  -1.002  1.00  0.00     0.123 A 
ATOM      2  C   UNL     1       6.671   3.829  -1.694  1.00  0.00     0.095 A 
ATOM      3  C   UNL     1       7.369   2.784  -1.134  1.00  0.00     0.146 A 
ATOM      4  C   UNL     1       7.044   2.403   0.167  1.00  0.00     0.089 A 
ATOM      5  N   UNL     1       7.572   1.429   0.920  1.00  0.00    -0.353 N 
ATOM      6  C   UNL     1       6.959   1.397   2.140  1.00  0.00     0.058 A 
ATOM      7  C   UNL     1       6.025   2.396   2.108  1.00  0.00     0.035 A 
ATOM      8  C   UNL     1       6.068   3.032   0.880  1.00  0.00     0.007 A 
ATOM      9  C   UNL     1       5.382   4.081   0.292  1.00  0.00     0.057 A 
ATOM     10  H   UNL     1       8.336   0.783   0.638  1.00  0.00     0.166 HD
ENDROOT
BRANCH   1  11
ATOM     11  O   UNL     1       5.008   5.539  -1.624  1.00  0.00    -0.497 OA
ATOM     12  C   UNL     1       3.705   5.847  -1.162  1.00  0.00     0.278 C 
ENDBRANCH   1  11
BRANCH   3  13
ATOM     13  O   UNL     1       8.357   2.123  -1.815  1.00  0.00    -0.494 OA
ATOM     14  C   UNL     1       9.050   2.603  -2.947  1.00  0.00     0.278 C 
ENDBRANCH   3  13
BRANCH   6  15
ATOM     15  C   UNL     1       7.274   0.454   3.239  1.00  0.00     0.202 C 
BRANCH  15  16
ATOM     16  O   UNL     1       7.019   1.133   4.428  1.00  0.00    -0.375 OA
ATOM     17  H   UNL     1       7.741   0.850   5.069  1.00  0.00     0.212 HD
ENDBRANCH  15  16
BRANCH  15  18
ATOM     18  C   UNL     1       8.733   0.089   3.129  1.00  0.00     0.030 C 
ATOM     19  C   UNL     1       9.663   1.250   3.035  1.00  0.00     0.011 C 
ATOM     20  C   UNL     1       9.175  -0.873   4.189  1.00  0.00     0.011 C 
ENDBRANCH  15  18
BRANCH  15  21
ATOM     21  C   UNL     1       6.351  -0.730   3.202  1.00  0.00     0.423 C 
ATOM     22  F   UNL     1       6.948  -1.689   2.406  1.00  0.00    -0.167 F 
ATOM     23  F   UNL     1       6.078  -1.289   4.412  1.00  0.00    -0.167 F 
ATOM     24  F   UNL     1       5.169  -0.347   2.552  1.00  0.00    -0.167 F 
ENDBRANCH  15  21
ENDBRANCH   6  15
TORSDOF 6
ENDMDL
MODEL 4
REMARK VINA RESULT:      -4.2      3.096      4.620
REMARK SMILES COc1cc(OC)c2[nH]c(C(O)(C(C)C)C(F)(F)F)cc2c1
REMARK SMILES IDX 3 1 4 2 5 3 8 4 9 5 10 6 20 7 21 8 22 9 2 11 1 12 6 13 7 14
REMARK SMILES IDX 11 15 12 16 13 18 14 19 15 20 16 21 17 22 18 23 19 24
REMARK H PARENT 9 10 12 17
ROOT
ATOM      1  C   UNL     1       8.954   3.702   3.886  1.00  0.00     0.123 A 
ATOM      2  C   UNL     1       9.419   2.417   4.102  1.00  0.00     0.095 A 
ATOM      3  C   UNL     1       8.927   1.341   3.400  1.00  0.00     0.146 A 
ATOM      4  C   UNL     1       7.934   1.579   2.451  1.00  0.00     0.089 A 
ATOM      5  N   UNL     1       7.305   0.708   1.650  1.00  0.00    -0.353 N 
ATOM      6  C   UNL     1       6.396   1.365   0.869  1.00  0.00     0.058 A 
ATOM      7  C   UNL     1       6.493   2.683   1.222  1.00  0.00     0.035 A 
ATOM      8  C   UNL     1       7.451   2.830   2.210  1.00  0.00     0.007 A 
ATOM      9  C   UNL     1       7.963   3.894   2.932  1.00  0.00     0.057 A 
ATOM     10  H   UNL     1       7.466  -0.317   1.612  1.00  0.00     0.166 HD
ENDROOT
BRANCH   1  11
ATOM     11  O   UNL     1       9.492   4.743   4.629  1.00  0.00    -0.497 OA
ATOM     12  C   UNL     1       8.585   5.668   5.205  1.00  0.00     0.278 C 
ENDBRANCH   1  11
BRANCH   3  13
ATOM     13  O   UNL     1       9.385   0.067   3.609  1.00  0.00    -0.494 OA
ATOM     14  C   UNL     1       9.644  -0.527   4.862  1.00  0.00     0.278 C 
ENDBRANCH   3  13
BRANCH   6  15
ATOM     15  C   UNL     1       5.513   0.735  -0.141  1.00  0.00     0.202 C 
BRANCH  15  16
ATOM     16  O   UNL     1       6.348   0.181  -1.108  1.00  0.00    -0.375 OA
ATOM     17  H   UNL     1       6.432   0.875  -1.831  1.00  0.00     0.212 HD
ENDBRANCH  15  16
BRANCH  15  18
ATOM     18  C   UNL     1       4.645   1.817  -0.733  1.00  0.00     0.030 C 
ATOM     19  C   UNL     1       5.384   2.866  -1.492  1.00  0.00     0.011 C 
ATOM     20  C   UNL     1       3.503   1.273  -1.536  1.00  0.00     0.011 C 
ENDBRANCH  15  18
BRANCH  15  21
ATOM     21  C   UNL     1       4.735  -0.396   0.468  1.00  0.00     0.423 C 
ATOM     22  F   UNL     1       5.578  -1.490   0.518  1.00  0.00    -0.167 F 
ATOM     23  F   UNL     1       4.263  -0.165   1.723  1.00  0.00    -0.167 F 
ATOM     24  F   UNL     1       3.690  -0.732  -0.404  1.00  0.00    -0.167 F 
ENDBRANCH  15  21
ENDBRANCH   6  15
TORSDOF 6
ENDMDL
MODEL 5
REMARK VINA RESULT:      -4.1      3.023      6.295
REMARK SMILES COc1cc(OC)c2[nH]c(C(O)(C(C)C)C(F)(F)F)cc2c1
REMARK SMILES IDX 3 1 4 2 5 3 8 4 9 5 10 6 20 7 21 8 22 9 2 11 1 12 6 13 7 14
REMARK SMILES IDX 11 15 12 16 13 18 14 19 15 20 16 21 17 22 18 23 19 24
REMARK H PARENT 9 10 12 17
ROOT
ATOM      1  C   UNL     1       9.412   3.485  -1.437  1.00  0.00     0.123 A 
ATOM      2  C   UNL     1       9.716   4.328  -0.383  1.00  0.00     0.095 A 
ATOM      3  C   UNL     1       9.441   3.985   0.920  1.00  0.00     0.146 A 
ATOM      4  C   UNL     1       8.840   2.751   1.159  1.00  0.00     0.089 A 
ATOM      5  N   UNL     1       8.478   2.198   2.325  1.00  0.00    -0.353 N 
ATOM      6  C   UNL     1       7.919   0.970   2.106  1.00  0.00     0.058 A 
ATOM      7  C   UNL     1       7.953   0.788   0.751  1.00  0.00     0.035 A 
ATOM      8  C   UNL     1       8.526   1.893   0.148  1.00  0.00     0.007 A 
ATOM      9  C   UNL     1       8.813   2.264  -1.155  1.00  0.00     0.057 A 
ATOM     10  H   UNL     1       8.594   2.622   3.266  1.00  0.00     0.166 HD
ENDROOT
BRANCH   1  11
ATOM     11  O   UNL     1       9.716   3.890  -2.728  1.00  0.00    -0.497 OA
ATOM     12  C   UNL     1       9.474   2.965  -3.775  1.00  0.00     0.278 C 
ENDBRANCH   1  11
BRANCH   3  13
ATOM     13  O   UNL     1       9.740   4.817   1.968  1.00  0.00    -0.494 OA
ATOM     14  C   UNL     1       8.909   5.831   2.487  1.00  0.00     0.278 C 
ENDBRANCH   3  13
BRANCH   6  15
ATOM     15  C   UNL     1       7.400   0.061   3.155  1.00  0.00     0.202 C 
BRANCH  15  16
ATOM     16  O   UNL     1       7.082   0.860   4.250  1.00  0.00    -0.375 OA
ATOM     17  H   UNL     1       7.942   0.996   4.753  1.00  0.00     0.212 HD
ENDBRANCH  15  16
BRANCH  15  18
ATOM     18  C   UNL     1       8.495  -0.916   3.501  1.00  0.00     0.030 C 
ATOM     19  C   UNL     1       9.313  -1.376   2.343  1.00  0.00     0.011 C 
ATOM     20  C   UNL     1       9.366  -0.442   4.623  1.00  0.00     0.011 C 
ENDBRANCH  15  18
BRANCH  15  21
ATOM     21  C   UNL     1       6.126  -0.595   2.704  1.00  0.00     0.423 C 
ATOM     22  F   UNL     1       5.495  -1.080   3.833  1.00  0.00    -0.167 F 
ATOM     23  F   UNL     1       5.257   0.220   2.047  1.00  0.00    -0.167 F 
ATOM     24  F   UNL     1       6.457  -1.708   1.918  1.00  0.00    -0.167 F 
ENDBRANCH  15  21
ENDBRANCH   6  15
TORSDOF 6
ENDMDL
MODEL 6
REMARK VINA RESULT:      -4.0      2.738      3.634
REMARK SMILES COc1cc(OC)c2[nH]c(C(O)(C(C)C)C(F)(F)F)cc2c1
REMARK SMILES IDX 3 1 4 2 5 3 8 4 9 5 10 6 20 7 21 8 22 9 2 11 1 12 6 13 7 14
REMARK SMILES IDX 11 15 12 16 13 18 14 19 15 20 16 21 17 22 18 23 19 24
REMARK H PARENT 9 10 12 17
ROOT
ATOM      1  C   UNL     1       8.502   3.574   4.363  1.00  0.00     0.123 A 
ATOM      2  C   UNL     1       8.212   2.286   4.777  1.00  0.00     0.095 A 
ATOM      3  C   UNL     1       7.521   1.406   3.977  1.00  0.00     0.146 A 
ATOM      4  C   UNL     1       7.112   1.848   2.720  1.00  0.00     0.089 A 
ATOM      5  N   UNL     1       6.435   1.188   1.771  1.00  0.00    -0.353 N 
ATOM      6  C   UNL     1       6.241   1.997   0.687  1.00  0.00     0.058 A 
ATOM      7  C   UNL     1       6.830   3.189   1.009  1.00  0.00     0.035 A 
ATOM      8  C   UNL     1       7.378   3.108   2.276  1.00  0.00     0.007 A 
ATOM      9  C   UNL     1       8.075   3.973   3.103  1.00  0.00     0.057 A 
ATOM     10  H   UNL     1       6.097   0.207   1.829  1.00  0.00     0.166 HD
ENDROOT
BRANCH   1  11
ATOM     11  O   UNL     1       9.202   4.411   5.218  1.00  0.00    -0.497 OA
ATOM     12  C   UNL     1       9.279   5.783   4.868  1.00  0.00     0.278 C 
ENDBRANCH   1  11
BRANCH   3  13
ATOM     13  O   UNL     1       7.233   0.129   4.382  1.00  0.00    -0.494 OA
ATOM     14  C   UNL     1       6.293  -0.739   3.788  1.00  0.00     0.278 C 
ENDBRANCH   3  13
BRANCH   6  15
ATOM     15  C   UNL     1       5.532   1.616  -0.557  1.00  0.00     0.202 C 
BRANCH  15  16
ATOM     16  O   UNL     1       6.286   0.604  -1.147  1.00  0.00    -0.375 OA
ATOM     17  H   UNL     1       6.829   1.048  -1.869  1.00  0.00     0.212 HD
ENDBRANCH  15  16
BRANCH  15  18
ATOM     18  C   UNL     1       5.474   2.832  -1.446  1.00  0.00     0.030 C 
ATOM     19  C   UNL     1       4.651   3.956  -0.915  1.00  0.00     0.011 C 
ATOM     20  C   UNL     1       6.829   3.309  -1.872  1.00  0.00     0.011 C 
ENDBRANCH  15  18
BRANCH  15  21
ATOM     21  C   UNL     1       4.185   1.032  -0.243  1.00  0.00     0.423 C 
ATOM     22  F   UNL     1       4.372  -0.312   0.017  1.00  0.00    -0.167 F 
ATOM     23  F   UNL     1       3.548   1.588   0.824  1.00  0.00    -0.167 F 
ATOM     24  F   UNL     1       3.390   1.113  -1.395  1.00  0.00    -0.167 F 
ENDBRANCH  15  21
ENDBRANCH   6  15
TORSDOF 6
ENDMDL
MODEL 7
REMARK VINA RESULT:      -4.0      1.007      1.507
REMARK SMILES COc1cc(OC)c2[nH]c(C(O)(C(C)C)C(F)(F)F)cc2c1
REMARK SMILES IDX 3 1 4 2 5 3 8 4 9 5 10 6 20 7 21 8 22 9 2 11 1 12 6 13 7 14
REMARK SMILES IDX 11 15 12 16 13 18 14 19 15 20 16 21 17 22 18 23 19 24
REMARK H PARENT 9 10 12 17
ROOT
ATOM      1  C   UNL     1       7.712  -0.426   2.757  1.00  0.00     0.123 A 
ATOM      2  C   UNL     1       6.482  -0.864   2.300  1.00  0.00     0.095 A 
ATOM      3  C   UNL     1       5.661  -0.059   1.544  1.00  0.00     0.146 A 
ATOM      4  C   UNL     1       6.104   1.228   1.245  1.00  0.00     0.089 A 
ATOM      5  N   UNL     1       5.495   2.188   0.535  1.00  0.00    -0.353 N 
ATOM      6  C   UNL     1       6.283   3.303   0.486  1.00  0.00     0.058 A 
ATOM      7  C   UNL     1       7.409   2.989   1.197  1.00  0.00     0.035 A 
ATOM      8  C   UNL     1       7.309   1.695   1.677  1.00  0.00     0.007 A 
ATOM      9  C   UNL     1       8.114   0.864   2.436  1.00  0.00     0.057 A 
ATOM     10  H   UNL     1       4.563   2.117   0.082  1.00  0.00     0.166 HD
ENDROOT
BRANCH   1  11
ATOM     11  O   UNL     1       8.491  -1.288   3.515  1.00  0.00    -0.497 OA
ATOM     12  C   UNL     1       8.905  -0.838   4.793  1.00  0.00     0.278 C 
ENDBRANCH   1  11
BRANCH   3  13
ATOM     13  O   UNL     1       4.442  -0.489   1.088  1.00  0.00    -0.494 OA
ATOM     14  C   UNL     1       3.265   0.284   1.010  1.00  0.00     0.278 C 
ENDBRANCH   3  13
BRANCH   6  15
ATOM     15  C   UNL     1       5.944   4.567  -0.209  1.00  0.00     0.202 C 
BRANCH  15  16
ATOM     16  O   UNL     1       7.054   4.903  -0.981  1.00  0.00    -0.375 OA
ATOM     17  H   UNL     1       7.859   4.695  -0.415  1.00  0.00     0.212 HD
ENDBRANCH  15  16
BRANCH  15  18
ATOM     18  C   UNL     1       5.681   5.616   0.842  1.00  0.00     0.030 C 
ATOM     19  C   UNL     1       4.433   5.412   1.630  1.00  0.00     0.011 C 
ATOM     20  C   UNL     1       6.857   5.847   1.741  1.00  0.00     0.011 C 
ENDBRANCH  15  18
BRANCH  15  21
ATOM     21  C   UNL     1       4.797   4.360  -1.156  1.00  0.00     0.423 C 
ATOM     22  F   UNL     1       4.555   5.571  -1.776  1.00  0.00    -0.167 F 
ATOM     23  F   UNL     1       5.003   3.422  -2.119  1.00  0.00    -0.167 F 
ATOM     24  F   UNL     1       3.653   4.058  -0.403  1.00  0.00    -0.167 F 
ENDBRANCH  15  21
ENDBRANCH   6  15
TORSDOF 6
ENDMDL
MODEL 8
REMARK VINA RESULT:      -3.9      2.289      3.144
REMARK SMILES COc1cc(OC)c2[nH]c(C(O)(C(C)C)C(F)(F)F)cc2c1
REMARK SMILES IDX 3 1 4 2 5 3 8 4 9 5 10 6 20 7 21 8 22 9 2 11 1 12 6 13 7 14
REMARK SMILES IDX 11 15 12 16 13 18 14 19 15 20 16 21 17 22 18 23 19 24
REMARK H PARENT 9 10 12 17
ROOT
ATOM      1  C   UNL     1       9.192  -0.804   1.819  1.00  0.00     0.123 A 
ATOM      2  C   UNL     1       9.597  -0.421   0.553  1.00  0.00     0.095 A 
ATOM      3  C   UNL     1       9.092   0.702  -0.060  1.00  0.00     0.146 A 
ATOM      4  C   UNL     1       8.149   1.458   0.634  1.00  0.00     0.089 A 
ATOM      5  N   UNL     1       7.518   2.578   0.256  1.00  0.00    -0.353 N 
ATOM      6  C   UNL     1       6.669   2.992   1.243  1.00  0.00     0.058 A 
ATOM      7  C   UNL     1       6.804   2.077   2.251  1.00  0.00     0.035 A 
ATOM      8  C   UNL     1       7.725   1.113   1.883  1.00  0.00     0.007 A 
ATOM      9  C   UNL     1       8.249  -0.023   2.476  1.00  0.00     0.057 A 
ATOM     10  H   UNL     1       7.641   3.074  -0.648  1.00  0.00     0.166 HD
ENDROOT
BRANCH   1  11
ATOM     11  O   UNL     1       9.740  -1.948   2.381  1.00  0.00    -0.497 OA
ATOM     12  C   UNL     1       9.554  -2.144   3.772  1.00  0.00     0.278 C 
ENDBRANCH   1  11
BRANCH   3  13
ATOM     13  O   UNL     1       9.491   1.086  -1.314  1.00  0.00    -0.494 OA
ATOM     14  C   UNL     1       9.740   2.409  -1.737  1.00  0.00     0.278 C 
ENDBRANCH   3  13
BRANCH   6  15
ATOM     15  C   UNL     1       5.803   4.193   1.187  1.00  0.00     0.202 C 
BRANCH  15  16
ATOM     16  O   UNL     1       6.513   5.160   0.480  1.00  0.00    -0.375 OA
ATOM     17  H   UNL     1       6.172   5.118  -0.466  1.00  0.00     0.212 HD
ENDBRANCH  15  16
BRANCH  15  18
ATOM     18  C   UNL     1       5.545   4.643   2.603  1.00  0.00     0.030 C 
ATOM     19  C   UNL     1       6.712   5.278   3.280  1.00  0.00     0.011 C 
ATOM     20  C   UNL     1       4.318   5.492   2.731  1.00  0.00     0.011 C 
ENDBRANCH  15  18
BRANCH  15  21
ATOM     21  C   UNL     1       4.552   3.908   0.407  1.00  0.00     0.423 C 
ATOM     22  F   UNL     1       4.941   3.491  -0.852  1.00  0.00    -0.167 F 
ATOM     23  F   UNL     1       3.742   2.954   0.940  1.00  0.00    -0.167 F 
ATOM     24  F   UNL     1       3.856   5.113   0.234  1.00  0.00    -0.167 F 
ENDBRANCH  15  21
ENDBRANCH   6  15
TORSDOF 6
ENDMDL
MODEL 9
REMARK VINA RESULT:      -3.8      2.681      4.634
REMARK SMILES COc1cc(OC)c2[nH]c(C(O)(C(C)C)C(F)(F)F)cc2c1
REMARK SMILES IDX 3 1 4 2 5 3 8 4 9 5 10 6 20 7 21 8 22 9 2 11 1 12 6 13 7 14
REMARK SMILES IDX 11 15 12 16 13 18 14 19 15 20 16 21 17 22 18 23 19 24
REMARK H PARENT 9 10 12 17
ROOT
ATOM      1  C   UNL     1       8.671   3.697   4.417  1.00  0.00     0.123 A 
ATOM      2  C   UNL     1       8.740   2.463   5.039  1.00  0.00     0.095 A 
ATOM      3  C   UNL     1       8.028   1.379   4.579  1.00  0.00     0.146 A 
ATOM      4  C   UNL     1       7.224   1.555   3.455  1.00  0.00     0.089 A 
ATOM      5  N   UNL     1       6.445   0.665   2.824  1.00  0.00    -0.353 N 
ATOM      6  C   UNL     1       5.825   1.258   1.761  1.00  0.00     0.058 A 
ATOM      7  C   UNL     1       6.256   2.556   1.762  1.00  0.00     0.035 A 
ATOM      8  C   UNL     1       7.130   2.755   2.815  1.00  0.00     0.007 A 
ATOM      9  C   UNL     1       7.857   3.828   3.300  1.00  0.00     0.057 A 
ATOM     10  H   UNL     1       6.317  -0.331   3.087  1.00  0.00     0.166 HD
ENDROOT
BRANCH   1  11
ATOM     11  O   UNL     1       9.414   4.749   4.932  1.00  0.00    -0.497 OA
ATOM     12  C   UNL     1       9.671   5.846   4.072  1.00  0.00     0.278 C 
ENDBRANCH   1  11
BRANCH   3  13
ATOM     13  O   UNL     1       8.093   0.155   5.191  1.00  0.00    -0.494 OA
ATOM     14  C   UNL     1       8.479  -1.058   4.583  1.00  0.00     0.278 C 
ENDBRANCH   3  13
BRANCH   6  15
ATOM     15  C   UNL     1       4.888   0.589   0.828  1.00  0.00     0.202 C 
BRANCH  15  16
ATOM     16  O   UNL     1       3.903  -0.005   1.614  1.00  0.00    -0.375 OA
ATOM     17  H   UNL     1       4.233   0.054   2.562  1.00  0.00     0.212 HD
ENDBRANCH  15  16
BRANCH  15  18
ATOM     18  C   UNL     1       5.664  -0.451   0.061  1.00  0.00     0.030 C 
ATOM     19  C   UNL     1       6.814   0.080  -0.726  1.00  0.00     0.011 C 
ATOM     20  C   UNL     1       6.082  -1.611   0.911  1.00  0.00     0.011 C 
ENDBRANCH  15  18
BRANCH  15  21
ATOM     21  C   UNL     1       4.202   1.598  -0.048  1.00  0.00     0.423 C 
ATOM     22  F   UNL     1       3.708   2.589   0.779  1.00  0.00    -0.167 F 
ATOM     23  F   UNL     1       4.993   2.183  -0.987  1.00  0.00    -0.167 F 
ATOM     24  F   UNL     1       3.093   0.982  -0.645  1.00  0.00    -0.167 F 
ENDBRANCH  15  21
ENDBRANCH   6  15
TORSDOF 6
ENDMDL
