MODEL 1
REMARK VINA RESULT:      -0.2      0.000      0.000
REMARK SMILES COC(=O)c1noc(-c2ccc(OC)c(OC)c2)c1OCc1ccc(Cl)cc1
REMARK SMILES IDX 5 1 6 2 7 3 8 4 19 5 3 6 4 7 2 8 1 9 20 10 21 11 22 12 23 13
REMARK SMILES IDX 28 14 24 15 27 16 25 17 26 18 9 19 10 20 18 21 11 22 15 23
REMARK SMILES IDX 12 24 16 25 17 26 13 27 14 28
REMARK H PARENT
ROOT
ATOM      1  C   UNL     1       9.091  -0.863   1.303  1.00  0.00     0.233 A 
ATOM      2  N   UNL     1       9.640  -0.710   0.107  1.00  0.00    -0.068 NA
ATOM      3  O   UNL     1       9.143   0.313  -0.466  1.00  0.00    -0.351 OA
ATOM      4  C   UNL     1       8.247   0.910   0.281  1.00  0.00     0.209 A 
ATOM      5  C   UNL     1       8.182   0.178   1.437  1.00  0.00     0.202 A 
ENDROOT
BRANCH   1   6
ATOM      6  C   UNL     1       9.393  -1.916   2.266  1.00  0.00     0.364 C 
ATOM      7  O   UNL     1       9.530  -3.081   1.806  1.00  0.00    -0.244 OA
BRANCH   6   8
ATOM      8  O   UNL     1       9.525  -1.652   3.623  1.00  0.00    -0.464 OA
ATOM      9  C   UNL     1       9.491  -2.713   4.590  1.00  0.00     0.282 C 
ENDBRANCH   6   8
ENDBRANCH   1   6
BRANCH   5  10
ATOM     10  O   UNL     1       7.412   0.347   2.567  1.00  0.00    -0.482 OA
BRANCH  10  11
ATOM     11  C   UNL     1       6.287  -0.481   2.849  1.00  0.00     0.265 C 
BRANCH  11  12
ATOM     12  C   UNL     1       5.258  -0.288   1.807  1.00  0.00    -0.011 A 
ATOM     13  C   UNL     1       5.308  -1.045   0.636  1.00  0.00     0.009 A 
ATOM     14  C   UNL     1       4.221   0.612   1.897  1.00  0.00     0.009 A 
ATOM     15  C   UNL     1       4.366  -0.892  -0.370  1.00  0.00     0.021 A 
ATOM     16  C   UNL     1       3.273   0.776   0.902  1.00  0.00     0.021 A 
ATOM     17  C   UNL     1       3.346   0.017  -0.245  1.00  0.00     0.041 A 
ATOM     18  Cl  UNL     1       2.127   0.263  -1.467  1.00  0.00    -0.084 Cl
ENDBRANCH  11  12
ENDBRANCH  10  11
ENDBRANCH   5  10
BRANCH   4  19
ATOM     19  C   UNL     1       7.508   2.101  -0.096  1.00  0.00     0.028 A 
ATOM     20  C   UNL     1       8.097   3.317   0.186  1.00  0.00     0.016 A 
ATOM     21  C   UNL     1       6.269   2.099  -0.689  1.00  0.00     0.062 A 
ATOM     22  C   UNL     1       7.498   4.522  -0.101  1.00  0.00     0.051 A 
ATOM     23  C   UNL     1       5.637   3.313  -0.990  1.00  0.00     0.161 A 
ATOM     24  C   UNL     1       6.257   4.528  -0.695  1.00  0.00     0.160 A 
BRANCH  23  25
ATOM     25  O   UNL     1       4.400   3.388  -1.580  1.00  0.00    -0.493 OA
ATOM     26  C   UNL     1       3.692   2.391  -2.236  1.00  0.00     0.278 C 
ENDBRANCH  23  25
BRANCH  24  27
ATOM     27  O   UNL     1       5.615   5.722  -1.001  1.00  0.00    -0.493 OA
ATOM     28  C   UNL     1       4.567   5.793  -1.949  1.00  0.00     0.278 C 
ENDBRANCH  24  27
ENDBRANCH   4  19
TORSDOF 8
ENDMDL
MODEL 2
REMARK VINA RESULT:       2.8      3.163      5.773
REMARK SMILES COC(=O)c1noc(-c2ccc(OC)c(OC)c2)c1OCc1ccc(Cl)cc1
REMARK SMILES IDX 5 1 6 2 7 3 8 4 19 5 3 6 4 7 2 8 1 9 20 10 21 11 22 12 23 13
REMARK SMILES IDX 28 14 24 15 27 16 25 17 26 18 9 19 10 20 18 21 11 22 15 23
REMARK SMILES IDX 12 24 16 25 17 26 13 27 14 28
REMARK H PARENT
ROOT
ATOM      1  C   UNL     1       8.663   3.701   2.117  1.00  0.00     0.233 A 
ATOM      2  N   UNL     1       9.515   2.688   2.122  1.00  0.00    -0.068 NA
ATOM      3  O   UNL     1       8.917   1.620   1.773  1.00  0.00    -0.351 OA
ATOM      4  C   UNL     1       7.648   1.828   1.513  1.00  0.00     0.209 A 
ATOM      5  C   UNL     1       7.443   3.166   1.725  1.00  0.00     0.202 A 
ENDROOT
BRANCH   1   6
ATOM      6  C   UNL     1       8.964   5.087   2.457  1.00  0.00     0.364 C 
ATOM      7  O   UNL     1       9.580   5.762   1.589  1.00  0.00    -0.244 OA
BRANCH   6   8
ATOM      8  O   UNL     1       8.592   5.640   3.675  1.00  0.00    -0.464 OA
ATOM      9  C   UNL     1       8.845   4.950   4.909  1.00  0.00     0.282 C 
ENDBRANCH   6   8
ENDBRANCH   1   6
BRANCH   5  10
ATOM     10  O   UNL     1       6.304   3.932   1.605  1.00  0.00    -0.482 OA
BRANCH  10  11
ATOM     11  C   UNL     1       5.988   4.639   0.408  1.00  0.00     0.265 C 
BRANCH  11  12
ATOM     12  C   UNL     1       6.892   4.204  -0.675  1.00  0.00    -0.011 A 
ATOM     13  C   UNL     1       8.165   4.768  -0.783  1.00  0.00     0.009 A 
ATOM     14  C   UNL     1       6.572   3.260  -1.624  1.00  0.00     0.009 A 
ATOM     15  C   UNL     1       9.043   4.392  -1.788  1.00  0.00     0.021 A 
ATOM     16  C   UNL     1       7.437   2.875  -2.632  1.00  0.00     0.021 A 
ATOM     17  C   UNL     1       8.687   3.447  -2.717  1.00  0.00     0.041 A 
ATOM     18  Cl  UNL     1       9.739   2.927  -4.006  1.00  0.00    -0.084 Cl
ENDBRANCH  11  12
ENDBRANCH  10  11
ENDBRANCH   5  10
BRANCH   4  19
ATOM     19  C   UNL     1       6.706   0.810   1.091  1.00  0.00     0.028 A 
ATOM     20  C   UNL     1       7.135  -0.501   1.151  1.00  0.00     0.016 A 
ATOM     21  C   UNL     1       5.439   1.060   0.624  1.00  0.00     0.062 A 
ATOM     22  C   UNL     1       6.349  -1.563   0.764  1.00  0.00     0.051 A 
ATOM     23  C   UNL     1       4.619  -0.003   0.222  1.00  0.00     0.161 A 
ATOM     24  C   UNL     1       5.078  -1.320   0.295  1.00  0.00     0.160 A 
BRANCH  23  25
ATOM     25  O   UNL     1       3.344   0.172  -0.256  1.00  0.00    -0.493 OA
ATOM     26  C   UNL     1       2.542   1.301  -0.189  1.00  0.00     0.278 C 
ENDBRANCH  23  25
BRANCH  24  27
ATOM     27  O   UNL     1       4.251  -2.361  -0.107  1.00  0.00    -0.493 OA
ATOM     28  C   UNL     1       4.718  -3.426  -0.914  1.00  0.00     0.278 C 
ENDBRANCH  24  27
ENDBRANCH   4  19
TORSDOF 8
ENDMDL
