MODEL 1
REMARK VINA RESULT:      -0.0      0.000      0.000
REMARK SMILES Cc1ccc(NCc2nnc(SCC(=O)NCC3CCCO3)n2-c2ccccc2)c(C)c1
REMARK SMILES IDX 8 1 9 2 10 3 11 4 23 5 7 6 6 7 5 9 2 10 3 11 32 12 4 13
REMARK SMILES IDX 30 14 1 15 31 16 24 17 25 18 29 19 26 20 28 21 27 22 12 23
REMARK SMILES IDX 13 24 14 25 16 26 15 27 17 29 18 30 19 31 22 32 20 33 21 34
REMARK H PARENT 6 8 16 28
ROOT
ATOM      1  C   UNL     1       9.250   3.424   0.500  1.00  0.00     0.157 A 
ATOM      2  N   UNL     1       9.543   2.316  -0.165  1.00  0.00    -0.132 NA
ATOM      3  N   UNL     1       9.740   1.294   0.664  1.00  0.00    -0.123 NA
ATOM      4  C   UNL     1       9.566   1.758   1.914  1.00  0.00     0.196 A 
ATOM      5  N   UNL     1       9.262   3.085   1.812  1.00  0.00    -0.273 N 
ENDROOT
BRANCH   1   6
ATOM      6  C   UNL     1       8.951   4.800   0.045  1.00  0.00     0.191 C 
BRANCH   6   7
ATOM      7  N   UNL     1       7.856   4.814  -0.908  1.00  0.00    -0.378 N 
ATOM      8  H   UNL     1       8.001   5.200  -1.873  1.00  0.00     0.161 HD
BRANCH   7   9
ATOM      9  C   UNL     1       6.552   4.310  -0.580  1.00  0.00     0.037 A 
ATOM     10  C   UNL     1       4.044   3.420   0.114  1.00  0.00    -0.051 A 
ATOM     11  C   UNL     1       4.558   4.553   0.738  1.00  0.00     0.005 A 
ATOM     12  C   UNL     1       4.782   2.736  -0.852  1.00  0.00     0.009 A 
ATOM     13  C   UNL     1       5.835   5.002   0.381  1.00  0.00     0.026 A 
ATOM     14  C   UNL     1       6.048   3.180  -1.207  1.00  0.00    -0.028 A 
ATOM     15  C   UNL     1       2.678   2.965   0.519  1.00  0.00     0.044 C 
ATOM     16  C   UNL     1       6.895   2.525  -2.211  1.00  0.00     0.046 C 
ENDBRANCH   7   9
ENDBRANCH   6   7
ENDBRANCH   1   6
BRANCH   5  17
ATOM     17  C   UNL     1       8.999   3.960   2.927  1.00  0.00     0.049 A 
ATOM     18  C   UNL     1       9.702   3.801   4.103  1.00  0.00     0.027 A 
ATOM     19  C   UNL     1       8.027   4.957   2.783  1.00  0.00     0.027 A 
ATOM     20  C   UNL     1       9.422   4.666   5.165  1.00  0.00     0.002 A 
ATOM     21  C   UNL     1       7.751   5.820   3.849  1.00  0.00     0.002 A 
ATOM     22  C   UNL     1       8.459   5.657   5.027  1.00  0.00     0.000 A 
ENDBRANCH   5  17
BRANCH   4  23
ATOM     23  S   UNL     1       9.686   0.897   3.474  1.00  0.00    -0.076 SA
BRANCH  23  24
ATOM     24  C   UNL     1       8.583  -0.516   3.551  1.00  0.00     0.178 C 
BRANCH  24  25
ATOM     25  C   UNL     1       7.174  -0.165   3.297  1.00  0.00     0.230 C 
ATOM     26  N   UNL     1       6.887   0.475   2.039  1.00  0.00    -0.353 N 
ATOM     27  O   UNL     1       6.232  -0.387   4.099  1.00  0.00    -0.274 OA
ATOM     28  H   UNL     1       7.677   0.668   1.354  1.00  0.00     0.163 HD
BRANCH  26  29
ATOM     29  C   UNL     1       5.553   0.874   1.662  1.00  0.00     0.147 C 
BRANCH  29  30
ATOM     30  C   UNL     1       4.677  -0.349   1.393  1.00  0.00     0.137 C 
ATOM     31  C   UNL     1       5.355  -1.159   0.325  1.00  0.00     0.036 C 
ATOM     32  O   UNL     1       3.481   0.093   0.899  1.00  0.00    -0.376 OA
ATOM     33  C   UNL     1       4.674  -0.722  -0.950  1.00  0.00     0.031 C 
ATOM     34  C   UNL     1       3.405  -0.122  -0.450  1.00  0.00     0.160 C 
ENDBRANCH  29  30
ENDBRANCH  26  29
ENDBRANCH  24  25
ENDBRANCH  23  24
ENDBRANCH   4  23
TORSDOF 9
ENDMDL
MODEL 2
REMARK VINA RESULT:       0.1      2.830      6.256
REMARK SMILES Cc1ccc(NCc2nnc(SCC(=O)NCC3CCCO3)n2-c2ccccc2)c(C)c1
REMARK SMILES IDX 8 1 9 2 10 3 11 4 23 5 7 6 6 7 5 9 2 10 3 11 32 12 4 13
REMARK SMILES IDX 30 14 1 15 31 16 24 17 25 18 29 19 26 20 28 21 27 22 12 23
REMARK SMILES IDX 13 24 14 25 16 26 15 27 17 29 18 30 19 31 22 32 20 33 21 34
REMARK H PARENT 6 8 16 28
ROOT
ATOM      1  C   UNL     1       5.443   1.066  -1.178  1.00  0.00     0.157 A 
ATOM      2  N   UNL     1       4.117   1.044  -1.172  1.00  0.00    -0.132 NA
ATOM      3  N   UNL     1       3.614   2.243  -1.454  1.00  0.00    -0.123 NA
ATOM      4  C   UNL     1       4.653   3.073  -1.651  1.00  0.00     0.196 A 
ATOM      5  N   UNL     1       5.792   2.340  -1.479  1.00  0.00    -0.273 N 
ENDROOT
BRANCH   1   6
ATOM      6  C   UNL     1       6.451   0.011  -0.931  1.00  0.00     0.191 C 
BRANCH   6   7
ATOM      7  N   UNL     1       7.442   0.445   0.037  1.00  0.00    -0.378 N 
ATOM      8  H   UNL     1       8.087   1.241  -0.189  1.00  0.00     0.161 HD
BRANCH   7   9
ATOM      9  C   UNL     1       7.582  -0.182   1.321  1.00  0.00     0.037 A 
ATOM     10  C   UNL     1       7.759  -1.343   3.808  1.00  0.00    -0.051 A 
ATOM     11  C   UNL     1       6.643  -0.572   3.498  1.00  0.00     0.005 A 
ATOM     12  C   UNL     1       8.781  -1.531   2.878  1.00  0.00     0.009 A 
ATOM     13  C   UNL     1       6.557   0.018   2.231  1.00  0.00     0.026 A 
ATOM     14  C   UNL     1       8.698  -0.948   1.622  1.00  0.00    -0.028 A 
ATOM     15  C   UNL     1       7.821  -1.957   5.170  1.00  0.00     0.044 C 
ATOM     16  C   UNL     1       9.723  -1.092   0.581  1.00  0.00     0.046 C 
ENDBRANCH   7   9
ENDBRANCH   6   7
ENDBRANCH   1   6
BRANCH   5  17
ATOM     17  C   UNL     1       7.133   2.857  -1.603  1.00  0.00     0.049 A 
ATOM     18  C   UNL     1       7.623   3.725  -0.650  1.00  0.00     0.027 A 
ATOM     19  C   UNL     1       7.907   2.457  -2.699  1.00  0.00     0.027 A 
ATOM     20  C   UNL     1       8.927   4.207  -0.801  1.00  0.00     0.002 A 
ATOM     21  C   UNL     1       9.210   2.943  -2.845  1.00  0.00     0.002 A 
ATOM     22  C   UNL     1       9.699   3.814  -1.886  1.00  0.00     0.000 A 
ENDBRANCH   5  17
BRANCH   4  23
ATOM     23  S   UNL     1       4.658   4.811  -2.062  1.00  0.00    -0.076 SA
BRANCH  23  24
ATOM     24  C   UNL     1       3.984   5.818  -0.739  1.00  0.00     0.178 C 
BRANCH  24  25
ATOM     25  C   UNL     1       4.272   5.282   0.603  1.00  0.00     0.230 C 
ATOM     26  N   UNL     1       5.518   5.684   1.203  1.00  0.00    -0.353 N 
ATOM     27  O   UNL     1       3.510   4.509   1.237  1.00  0.00    -0.274 OA
ATOM     28  H   UNL     1       6.170   6.337   0.675  1.00  0.00     0.163 HD
BRANCH  26  29
ATOM     29  C   UNL     1       5.928   5.232   2.511  1.00  0.00     0.147 C 
BRANCH  29  30
ATOM     30  C   UNL     1       6.538   3.834   2.434  1.00  0.00     0.137 C 
ATOM     31  C   UNL     1       7.028   3.483   3.810  1.00  0.00     0.036 C 
ATOM     32  O   UNL     1       7.619   3.893   1.599  1.00  0.00    -0.376 OA
ATOM     33  C   UNL     1       8.495   3.837   3.776  1.00  0.00     0.031 C 
ATOM     34  C   UNL     1       8.785   3.869   2.314  1.00  0.00     0.160 C 
ENDBRANCH  29  30
ENDBRANCH  26  29
ENDBRANCH  24  25
ENDBRANCH  23  24
ENDBRANCH   4  23
TORSDOF 9
ENDMDL
MODEL 3
REMARK VINA RESULT:       2.9      2.448      5.728
REMARK SMILES Cc1ccc(NCc2nnc(SCC(=O)NCC3CCCO3)n2-c2ccccc2)c(C)c1
REMARK SMILES IDX 8 1 9 2 10 3 11 4 23 5 7 6 6 7 5 9 2 10 3 11 32 12 4 13
REMARK SMILES IDX 30 14 1 15 31 16 24 17 25 18 29 19 26 20 28 21 27 22 12 23
REMARK SMILES IDX 13 24 14 25 16 26 15 27 17 29 18 30 19 31 22 32 20 33 21 34
REMARK H PARENT 6 8 16 28
ROOT
ATOM      1  C   UNL     1       7.860   4.673   0.998  1.00  0.00     0.157 A 
ATOM      2  N   UNL     1       6.907   5.236   1.727  1.00  0.00    -0.132 NA
ATOM      3  N   UNL     1       5.860   5.568   0.977  1.00  0.00    -0.123 NA
ATOM      4  C   UNL     1       6.145   5.206  -0.286  1.00  0.00     0.196 A 
ATOM      5  N   UNL     1       7.392   4.649  -0.273  1.00  0.00    -0.273 N 
ENDROOT
BRANCH   1   6
ATOM      6  C   UNL     1       9.194   4.139   1.357  1.00  0.00     0.191 C 
BRANCH   6   7
ATOM      7  N   UNL     1       9.167   3.478   2.649  1.00  0.00    -0.378 N 
ATOM      8  H   UNL     1       9.048   4.040   3.527  1.00  0.00     0.161 HD
BRANCH   7   9
ATOM      9  C   UNL     1       9.299   2.054   2.781  1.00  0.00     0.037 A 
ATOM     10  C   UNL     1       9.561  -0.679   2.933  1.00  0.00    -0.051 A 
ATOM     11  C   UNL     1       9.615  -0.062   1.687  1.00  0.00     0.005 A 
ATOM     12  C   UNL     1       9.377   0.068   4.096  1.00  0.00     0.009 A 
ATOM     13  C   UNL     1       9.481   1.330   1.614  1.00  0.00     0.026 A 
ATOM     14  C   UNL     1       9.243   1.446   4.026  1.00  0.00    -0.028 A 
ATOM     15  C   UNL     1       9.706  -2.167   2.976  1.00  0.00     0.044 C 
ATOM     16  C   UNL     1       9.046   2.312   5.196  1.00  0.00     0.046 C 
ENDBRANCH   7   9
ENDBRANCH   6   7
ENDBRANCH   1   6
BRANCH   5  17
ATOM     17  C   UNL     1       8.076   4.127  -1.430  1.00  0.00     0.049 A 
ATOM     18  C   UNL     1       9.084   3.199  -1.270  1.00  0.00     0.027 A 
ATOM     19  C   UNL     1       7.692   4.583  -2.697  1.00  0.00     0.027 A 
ATOM     20  C   UNL     1       9.725   2.715  -2.413  1.00  0.00     0.002 A 
ATOM     21  C   UNL     1       8.339   4.094  -3.838  1.00  0.00     0.002 A 
ATOM     22  C   UNL     1       9.350   3.163  -3.672  1.00  0.00     0.000 A 
ENDBRANCH   5  17
BRANCH   4  23
ATOM     23  S   UNL     1       5.162   5.374  -1.767  1.00  0.00    -0.076 SA
BRANCH  23  24
ATOM     24  C   UNL     1       4.015   4.010  -1.973  1.00  0.00     0.178 C 
BRANCH  24  25
ATOM     25  C   UNL     1       4.365   2.831  -1.161  1.00  0.00     0.230 C 
ATOM     26  N   UNL     1       3.621   1.625  -1.422  1.00  0.00    -0.353 N 
ATOM     27  O   UNL     1       5.256   2.820  -0.274  1.00  0.00    -0.274 OA
ATOM     28  H   UNL     1       2.866   1.625  -2.170  1.00  0.00     0.163 HD
BRANCH  26  29
ATOM     29  C   UNL     1       3.859   0.399  -0.700  1.00  0.00     0.147 C 
BRANCH  29  30
ATOM     30  C   UNL     1       4.542   0.681   0.637  1.00  0.00     0.137 C 
ATOM     31  C   UNL     1       6.022   0.538   0.424  1.00  0.00     0.036 C 
ATOM     32  O   UNL     1       4.144  -0.283   1.523  1.00  0.00    -0.376 OA
ATOM     33  C   UNL     1       6.320  -0.872   0.871  1.00  0.00     0.031 C 
ATOM     34  C   UNL     1       5.141  -1.197   1.723  1.00  0.00     0.160 C 
ENDBRANCH  29  30
ENDBRANCH  26  29
ENDBRANCH  24  25
ENDBRANCH  23  24
ENDBRANCH   4  23
TORSDOF 9
ENDMDL
