MODEL 1
REMARK VINA RESULT:      -1.0      0.000      0.000
REMARK SMILES Cc1noc2nc(C=NC#N)c3c(c12)-c1ccc(Cl)cc1C(c1ccccc1Br)NC3
REMARK SMILES IDX 8 1 7 2 2 3 3 4 14 5 4 6 13 7 5 8 12 9 15 10 6 11 31 12
REMARK SMILES IDX 16 13 21 14 30 15 17 16 20 17 22 18 18 19 1 20 19 22 23 23
REMARK SMILES IDX 24 24 28 25 25 26 27 27 26 28 29 29 9 30 10 31 11 32
REMARK H PARENT 30 21
ROOT
ATOM      1  C   UNL     1       8.473   1.839   3.940  1.00  0.00     0.153 C 
ENDROOT
BRANCH   1   2
ATOM      2  C   UNL     1       7.330   1.577   3.087  1.00  0.00     0.091 A 
ATOM      3  C   UNL     1       4.027   0.608   0.764  1.00  0.00     0.091 A 
ATOM      4  N   UNL     1       3.634  -0.458   1.541  1.00  0.00    -0.082 NA
ATOM      5  C   UNL     1       5.122   1.085   1.412  1.00  0.00     0.073 A 
ATOM      6  O   UNL     1       4.433  -0.611   2.559  1.00  0.00    -0.336 OA
ATOM      7  C   UNL     1       6.012   2.087   1.215  1.00  0.00     0.003 A 
ATOM      8  C   UNL     1       5.385   0.289   2.559  1.00  0.00     0.259 A 
ATOM      9  C   UNL     1       7.127   2.385   1.988  1.00  0.00     0.002 A 
ATOM     10  C   UNL     1       5.495   3.021   0.198  1.00  0.00    -0.012 A 
ATOM     11  N   UNL     1       6.451   0.558   3.339  1.00  0.00    -0.209 NA
ATOM     12  C   UNL     1       8.170   3.392   1.727  1.00  0.00     0.120 C 
ATOM     13  C   UNL     1       4.133   3.219   0.336  1.00  0.00     0.010 A 
ATOM     14  C   UNL     1       6.284   3.640  -0.749  1.00  0.00    -0.017 A 
ATOM     15  N   UNL     1       8.179   4.093   0.522  1.00  0.00    -0.302 NA
ATOM     16  C   UNL     1       3.583   4.118  -0.596  1.00  0.00     0.021 A 
ATOM     17  C   UNL     1       5.759   4.494  -1.634  1.00  0.00     0.026 A 
ATOM     18  C   UNL     1       7.795   3.508  -0.726  1.00  0.00     0.117 C 
ATOM     19  C   UNL     1       4.375   4.733  -1.551  1.00  0.00     0.041 A 
ATOM     20  C   UNL     1       3.384   0.846  -0.539  1.00  0.00     0.071 C 
ATOM     21  H   UNL     1       7.880   5.103   0.598  1.00  0.00     0.123 HD
ATOM     22  Cl  UNL     1       3.666   5.847  -2.701  1.00  0.00    -0.084 Cl
BRANCH  18  23
ATOM     23  C   UNL     1       8.439   3.949  -1.930  1.00  0.00    -0.012 A 
ATOM     24  C   UNL     1       8.346   5.311  -2.267  1.00  0.00     0.007 A 
ATOM     25  C   UNL     1       9.156   3.181  -2.826  1.00  0.00     0.023 A 
ATOM     26  C   UNL     1       8.925   5.817  -3.400  1.00  0.00     0.000 A 
ATOM     27  C   UNL     1       9.740   3.689  -3.966  1.00  0.00     0.016 A 
ATOM     28  C   UNL     1       9.631   5.014  -4.266  1.00  0.00     0.001 A 
ATOM     29  Br  UNL     1       9.351   1.316  -2.502  1.00  0.00    -0.050 Br
ENDBRANCH  18  23
ENDBRANCH   1   2
BRANCH   1  30
ATOM     30  N   UNL     1       8.662   1.161   5.020  1.00  0.00    -0.179 NA
BRANCH  30  31
ATOM     31  C   UNL     1       9.089  -0.151   5.072  1.00  0.00     0.205 C 
ATOM     32  N   UNL     1       9.451  -1.243   5.110  1.00  0.00    -0.170 NA
ENDBRANCH  30  31
ENDBRANCH   1  30
TORSDOF 4
ENDMDL
