MODEL 1
REMARK VINA RESULT:      -3.4      0.000      0.000
REMARK SMILES C=C1OC(=O)C(C(=O)O)C1C=CC=CC1C(=O)C(=CCC2(C)OC(=O)CCC2C)CC1CO
REMARK SMILES IDX 13 1 12 2 11 3 10 4 2 5 3 6 4 7 6 8 1 9 5 10 7 11 8 12 9 13
REMARK SMILES IDX 14 15 15 16 16 17 31 18 18 19 30 20 17 21 32 22 33 23 19 25
REMARK SMILES IDX 20 26 21 27 23 28 28 29 24 30 27 31 26 32 22 33 29 34 25 35
REMARK H PARENT 9 14 33 24
ROOT
ATOM      1  C   UNL     1       8.294   3.213   3.849  1.00  0.00    -0.004 C 
ENDROOT
BRANCH   1   2
ATOM      2  C   UNL     1       8.873   2.755   5.135  1.00  0.00    -0.004 C 
BRANCH   2   3
ATOM      3  C   UNL     1       9.654   1.699   5.218  1.00  0.00    -0.014 C 
BRANCH   3   4
ATOM      4  C   UNL     1       9.739   0.594   4.285  1.00  0.00     0.103 C 
ATOM      5  C   UNL     1       9.453   0.999   2.870  1.00  0.00     0.109 C 
ATOM      6  O   UNL     1       9.129  -0.217   2.238  1.00  0.00    -0.430 OA
ATOM      7  C   UNL     1       8.952  -1.240   3.180  1.00  0.00     0.326 C 
ATOM      8  C   UNL     1       8.664  -0.474   4.462  1.00  0.00     0.223 C 
ATOM      9  C   UNL     1       9.492   2.205   2.332  1.00  0.00     0.055 C 
ATOM     10  O   UNL     1       9.011  -2.477   3.030  1.00  0.00    -0.251 OA
BRANCH   8  11
ATOM     11  C   UNL     1       7.296   0.040   4.301  1.00  0.00     0.318 C 
ATOM     12  O   UNL     1       6.597   0.584   5.167  1.00  0.00    -0.251 OA
BRANCH  11  13
ATOM     13  O   UNL     1       6.719  -0.102   3.027  1.00  0.00    -0.481 OA
ATOM     14  H   UNL     1       6.429  -1.027   2.694  1.00  0.00     0.296 HD
ENDBRANCH  11  13
ENDBRANCH   8  11
ENDBRANCH   3   4
ENDBRANCH   2   3
ENDBRANCH   1   2
BRANCH   1  15
ATOM     15  C   UNL     1       7.774   4.405   3.693  1.00  0.00    -0.015 C 
BRANCH  15  16
ATOM     16  C   UNL     1       6.840   4.855   2.689  1.00  0.00     0.089 C 
ATOM     17  C   UNL     1       6.029   3.772   2.026  1.00  0.00     0.165 C 
ATOM     18  C   UNL     1       7.378   5.539   1.476  1.00  0.00     0.034 C 
ATOM     19  C   UNL     1       5.356   4.507   0.928  1.00  0.00    -0.008 C 
ATOM     20  C   UNL     1       6.035   5.846   0.768  1.00  0.00     0.046 C 
ATOM     21  O   UNL     1       5.942   2.563   2.322  1.00  0.00    -0.294 OA
BRANCH  18  22
ATOM     22  C   UNL     1       8.082   4.610   0.510  1.00  0.00     0.161 C 
BRANCH  22  23
ATOM     23  O   UNL     1       7.878   5.018  -0.804  1.00  0.00    -0.396 OA
ATOM     24  H   UNL     1       6.920   5.236  -0.964  1.00  0.00     0.210 HD
ENDBRANCH  22  23
ENDBRANCH  18  22
BRANCH  19  25
ATOM     25  C   UNL     1       4.347   4.105   0.203  1.00  0.00    -0.016 C 
BRANCH  25  26
ATOM     26  C   UNL     1       3.640   2.815   0.332  1.00  0.00     0.076 C 
BRANCH  26  27
ATOM     27  C   UNL     1       4.361   1.798  -0.534  1.00  0.00     0.115 C 
ATOM     28  O   UNL     1       5.763   1.937  -0.357  1.00  0.00    -0.459 OA
ATOM     29  C   UNL     1       3.907   0.400  -0.255  1.00  0.00     0.031 C 
ATOM     30  C   UNL     1       6.674   0.957  -0.635  1.00  0.00     0.306 C 
ATOM     31  C   UNL     1       4.788  -0.586  -0.952  1.00  0.00     0.019 C 
ATOM     32  C   UNL     1       6.254  -0.447  -0.633  1.00  0.00     0.123 C 
ATOM     33  C   UNL     1       4.069   2.140  -1.975  1.00  0.00     0.057 C 
ATOM     34  C   UNL     1       3.884   0.111   1.232  1.00  0.00     0.012 C 
ATOM     35  O   UNL     1       7.876   1.306  -0.890  1.00  0.00    -0.252 OA
ENDBRANCH  26  27
ENDBRANCH  25  26
ENDBRANCH  19  25
ENDBRANCH  15  16
ENDBRANCH   1  15
TORSDOF 12
ENDMDL
MODEL 2
REMARK VINA RESULT:      -0.8      1.977      5.116
REMARK SMILES C=C1OC(=O)C(C(=O)O)C1C=CC=CC1C(=O)C(=CCC2(C)OC(=O)CCC2C)CC1CO
REMARK SMILES IDX 13 1 12 2 11 3 10 4 2 5 3 6 4 7 6 8 1 9 5 10 7 11 8 12 9 13
REMARK SMILES IDX 14 15 15 16 16 17 31 18 18 19 30 20 17 21 32 22 33 23 19 25
REMARK SMILES IDX 20 26 21 27 23 28 28 29 24 30 27 31 26 32 22 33 29 34 25 35
REMARK H PARENT 9 14 33 24
ROOT
ATOM      1  C   UNL     1       7.192   5.497   1.356  1.00  0.00    -0.004 C 
ENDROOT
BRANCH   1   2
ATOM      2  C   UNL     1       7.212   4.638   0.148  1.00  0.00    -0.004 C 
BRANCH   2   3
ATOM      3  C   UNL     1       6.191   3.881  -0.193  1.00  0.00    -0.014 C 
BRANCH   3   4
ATOM      4  C   UNL     1       6.101   2.438  -0.114  1.00  0.00     0.103 C 
ATOM      5  C   UNL     1       6.794   1.745  -1.249  1.00  0.00     0.109 C 
ATOM      6  O   UNL     1       6.216   0.460  -1.253  1.00  0.00    -0.430 OA
ATOM      7  C   UNL     1       5.095   0.412  -0.412  1.00  0.00     0.326 C 
ATOM      8  C   UNL     1       4.695   1.875  -0.297  1.00  0.00     0.223 C 
ATOM      9  C   UNL     1       7.724   2.216  -2.060  1.00  0.00     0.055 C 
ATOM     10  O   UNL     1       4.544  -0.572   0.121  1.00  0.00    -0.251 OA
BRANCH   8  11
ATOM     11  C   UNL     1       4.095   2.210  -1.597  1.00  0.00     0.318 C 
ATOM     12  O   UNL     1       3.374   1.482  -2.294  1.00  0.00    -0.251 OA
BRANCH  11  13
ATOM     13  O   UNL     1       4.368   3.493  -2.103  1.00  0.00    -0.481 OA
ATOM     14  H   UNL     1       5.263   3.683  -2.563  1.00  0.00     0.296 HD
ENDBRANCH  11  13
ENDBRANCH   8  11
ENDBRANCH   3   4
ENDBRANCH   2   3
ENDBRANCH   1   2
BRANCH   1  15
ATOM     15  C   UNL     1       7.906   5.234   2.422  1.00  0.00    -0.015 C 
BRANCH  15  16
ATOM     16  C   UNL     1       8.373   3.955   2.900  1.00  0.00     0.089 C 
ATOM     17  C   UNL     1       7.432   3.225   3.824  1.00  0.00     0.165 C 
ATOM     18  C   UNL     1       9.614   3.917   3.729  1.00  0.00     0.034 C 
ATOM     19  C   UNL     1       8.268   2.095   4.299  1.00  0.00    -0.008 C 
ATOM     20  C   UNL     1       9.705   2.385   3.940  1.00  0.00     0.046 C 
ATOM     21  O   UNL     1       6.251   3.498   4.119  1.00  0.00    -0.294 OA
BRANCH  18  22
ATOM     22  C   UNL     1       9.431   4.456   5.131  1.00  0.00     0.161 C 
BRANCH  22  23
ATOM     23  O   UNL     1       9.739   5.811   5.183  1.00  0.00    -0.396 OA
ATOM     24  H   UNL     1       9.439   6.275   4.356  1.00  0.00     0.210 HD
ENDBRANCH  22  23
ENDBRANCH  18  22
BRANCH  19  25
ATOM     25  C   UNL     1       7.870   1.019   4.921  1.00  0.00    -0.016 C 
BRANCH  25  26
ATOM     26  C   UNL     1       7.475  -0.258   4.291  1.00  0.00     0.076 C 
BRANCH  26  27
ATOM     27  C   UNL     1       7.564  -0.082   2.786  1.00  0.00     0.115 C 
ATOM     28  O   UNL     1       8.581   0.861   2.480  1.00  0.00    -0.459 OA
ATOM     29  C   UNL     1       7.790  -1.383   2.082  1.00  0.00     0.031 C 
ATOM     30  C   UNL     1       9.208   0.949   1.269  1.00  0.00     0.306 C 
ATOM     31  C   UNL     1       8.098  -1.151   0.638  1.00  0.00     0.019 C 
ATOM     32  C   UNL     1       9.258  -0.222   0.390  1.00  0.00     0.123 C 
ATOM     33  C   UNL     1       6.260   0.518   2.320  1.00  0.00     0.057 C 
ATOM     34  C   UNL     1       8.908  -2.176   2.727  1.00  0.00     0.012 C 
ATOM     35  O   UNL     1       9.735   2.066   0.942  1.00  0.00    -0.252 OA
ENDBRANCH  26  27
ENDBRANCH  25  26
ENDBRANCH  19  25
ENDBRANCH  15  16
ENDBRANCH   1  15
TORSDOF 12
ENDMDL
