MODEL 1
REMARK VINA RESULT:       1.6      0.000      0.000
REMARK SMILES CCN1CC(S(=O)(=O)N2CCN(c3ccc(F)cn3)CC2c2ccccc2)C2(CCCCC2)C1
REMARK SMILES IDX 6 1 7 2 8 3 5 4 3 5 4 6 34 7 28 8 29 9 33 10 30 11 32 12
REMARK SMILES IDX 31 13 2 14 1 15 9 16 10 17 21 18 11 19 20 20 12 21 22 22
REMARK SMILES IDX 23 23 27 24 24 25 26 26 25 27 13 28 14 29 19 30 15 31 18 32
REMARK SMILES IDX 16 33 17 34
REMARK H PARENT
ROOT
ATOM      1  S   UNL     1       4.853   0.899   0.881  1.00  0.00     0.219 S 
ATOM      2  O   UNL     1       3.838   0.586  -0.185  1.00  0.00    -0.212 OA
ATOM      3  O   UNL     1       4.176   0.861   2.192  1.00  0.00    -0.212 OA
ENDROOT
BRANCH   1   4
ATOM      4  C   UNL     1       5.564   2.482   0.526  1.00  0.00     0.146 C 
ATOM      5  N   UNL     1       4.985   4.766   0.685  1.00  0.00    -0.302 NA
ATOM      6  C   UNL     1       4.442   3.479   0.319  1.00  0.00     0.106 C 
ATOM      7  C   UNL     1       6.076   4.542   1.571  1.00  0.00     0.093 C 
ATOM      8  C   UNL     1       6.351   3.084   1.629  1.00  0.00     0.002 C 
ATOM      9  C   UNL     1       6.023   2.483   2.977  1.00  0.00     0.010 C 
ATOM     10  C   UNL     1       7.837   2.808   1.330  1.00  0.00     0.010 C 
ATOM     11  C   UNL     1       6.931   2.998   4.062  1.00  0.00     0.001 C 
ATOM     12  C   UNL     1       8.696   3.496   2.342  1.00  0.00     0.001 C 
ATOM     13  C   UNL     1       8.391   2.883   3.692  1.00  0.00     0.000 C 
BRANCH   5  14
ATOM     14  C   UNL     1       5.445   5.520  -0.458  1.00  0.00     0.081 C 
ATOM     15  C   UNL     1       4.956   5.022  -1.770  1.00  0.00     0.021 C 
ENDBRANCH   5  14
ENDBRANCH   1   4
BRANCH   1  16
ATOM     16  N   UNL     1       6.123  -0.265   0.864  1.00  0.00    -0.191 NA
ATOM     17  C   UNL     1       6.269  -0.901  -0.396  1.00  0.00     0.124 C 
ATOM     18  C   UNL     1       7.380   0.219   1.330  1.00  0.00     0.122 C 
ATOM     19  C   UNL     1       6.693   0.034  -1.504  1.00  0.00     0.135 C 
ATOM     20  C   UNL     1       8.439   0.312   0.218  1.00  0.00     0.143 C 
ATOM     21  N   UNL     1       7.765   0.862  -0.939  1.00  0.00    -0.353 N 
BRANCH  18  22
ATOM     22  C   UNL     1       7.959  -0.541   2.461  1.00  0.00    -0.028 A 
ATOM     23  C   UNL     1       7.394  -0.601   3.717  1.00  0.00     0.005 A 
ATOM     24  C   UNL     1       9.135  -1.239   2.262  1.00  0.00     0.005 A 
ATOM     25  C   UNL     1       7.988  -1.331   4.727  1.00  0.00     0.000 A 
ATOM     26  C   UNL     1       9.740  -1.974   3.262  1.00  0.00     0.000 A 
ATOM     27  C   UNL     1       9.159  -2.025   4.525  1.00  0.00     0.000 A 
ENDBRANCH  18  22
BRANCH  21  28
ATOM     28  C   UNL     1       8.078   2.111  -1.527  1.00  0.00     0.128 A 
ATOM     29  C   UNL     1       7.155   2.947  -2.113  1.00  0.00     0.050 A 
ATOM     30  N   UNL     1       9.359   2.530  -1.526  1.00  0.00    -0.236 NA
ATOM     31  C   UNL     1       7.518   4.172  -2.681  1.00  0.00     0.045 A 
ATOM     32  C   UNL     1       9.739   3.705  -2.067  1.00  0.00     0.152 A 
ATOM     33  C   UNL     1       8.835   4.579  -2.669  1.00  0.00     0.141 A 
ATOM     34  F   UNL     1       9.213   5.757  -3.211  1.00  0.00    -0.205 F 
ENDBRANCH  21  28
ENDBRANCH   1  16
TORSDOF 5
ENDMDL
MODEL 2
REMARK VINA RESULT:       2.4      1.642      3.159
REMARK SMILES CCN1CC(S(=O)(=O)N2CCN(c3ccc(F)cn3)CC2c2ccccc2)C2(CCCCC2)C1
REMARK SMILES IDX 6 1 7 2 8 3 5 4 3 5 4 6 34 7 28 8 29 9 33 10 30 11 32 12
REMARK SMILES IDX 31 13 2 14 1 15 9 16 10 17 21 18 11 19 20 20 12 21 22 22
REMARK SMILES IDX 23 23 27 24 24 25 26 26 25 27 13 28 14 29 19 30 15 31 18 32
REMARK SMILES IDX 16 33 17 34
REMARK H PARENT
ROOT
ATOM      1  S   UNL     1       4.099   1.100  -0.153  1.00  0.00     0.219 S 
ATOM      2  O   UNL     1       4.277   1.270  -1.637  1.00  0.00    -0.212 OA
ATOM      3  O   UNL     1       2.705   0.687   0.103  1.00  0.00    -0.212 OA
ENDROOT
BRANCH   1   4
ATOM      4  C   UNL     1       4.515   2.629   0.638  1.00  0.00     0.146 C 
ATOM      5  N   UNL     1       6.444   3.844   1.254  1.00  0.00    -0.302 NA
ATOM      6  C   UNL     1       5.906   2.505   1.226  1.00  0.00     0.106 C 
ATOM      7  C   UNL     1       5.755   4.610   0.271  1.00  0.00     0.093 C 
ATOM      8  C   UNL     1       4.634   3.797  -0.266  1.00  0.00     0.002 C 
ATOM      9  C   UNL     1       4.842   3.401  -1.710  1.00  0.00     0.010 C 
ATOM     10  C   UNL     1       3.312   4.582  -0.170  1.00  0.00     0.010 C 
ATOM     11  C   UNL     1       4.814   4.591  -2.632  1.00  0.00     0.001 C 
ATOM     12  C   UNL     1       3.410   5.844  -0.965  1.00  0.00     0.001 C 
ATOM     13  C   UNL     1       3.594   5.456  -2.418  1.00  0.00     0.000 C 
BRANCH   5  14
ATOM     14  C   UNL     1       6.294   4.476   2.544  1.00  0.00     0.081 C 
ATOM     15  C   UNL     1       4.956   5.069   2.796  1.00  0.00     0.021 C 
ENDBRANCH   5  14
ENDBRANCH   1   4
BRANCH   1  16
ATOM     16  N   UNL     1       5.168  -0.111   0.446  1.00  0.00    -0.191 NA
ATOM     17  C   UNL     1       5.579  -1.027  -0.557  1.00  0.00     0.124 C 
ATOM     18  C   UNL     1       6.296   0.390   1.160  1.00  0.00     0.122 C 
ATOM     19  C   UNL     1       6.409  -0.399  -1.652  1.00  0.00     0.135 C 
ATOM     20  C   UNL     1       7.626   0.161   0.421  1.00  0.00     0.143 C 
ATOM     21  N   UNL     1       7.375   0.471  -0.971  1.00  0.00    -0.353 N 
BRANCH  18  22
ATOM     22  C   UNL     1       6.437  -0.124   2.541  1.00  0.00    -0.028 A 
ATOM     23  C   UNL     1       6.013  -1.371   2.945  1.00  0.00     0.005 A 
ATOM     24  C   UNL     1       7.030   0.683   3.494  1.00  0.00     0.005 A 
ATOM     25  C   UNL     1       6.177  -1.787   4.251  1.00  0.00     0.000 A 
ATOM     26  C   UNL     1       7.201   0.281   4.804  1.00  0.00     0.000 A 
ATOM     27  C   UNL     1       6.768  -0.981   5.198  1.00  0.00     0.000 A 
ENDBRANCH  18  22
BRANCH  21  28
ATOM     28  C   UNL     1       7.993   1.531  -1.678  1.00  0.00     0.128 A 
ATOM     29  C   UNL     1       8.964   1.362  -2.638  1.00  0.00     0.050 A 
ATOM     30  N   UNL     1       7.622   2.798  -1.409  1.00  0.00    -0.236 NA
ATOM     31  C   UNL     1       9.543   2.445  -3.306  1.00  0.00     0.045 A 
ATOM     32  C   UNL     1       8.163   3.862  -2.036  1.00  0.00     0.152 A 
ATOM     33  C   UNL     1       9.148   3.733  -3.013  1.00  0.00     0.141 A 
ATOM     34  F   UNL     1       9.692   4.797  -3.643  1.00  0.00    -0.205 F 
ENDBRANCH  21  28
ENDBRANCH   1  16
TORSDOF 5
ENDMDL
