MODEL 1
REMARK VINA RESULT:      -0.0      0.000      0.000
REMARK SMILES CCCCCCc1cn(CC(N)C(O)c2cccc(C(=O)NCCc3ccc(O)cc3)c2)nn1
REMARK SMILES IDX 11 1 10 2 9 3 7 4 8 5 34 6 33 7 6 8 5 9 4 10 3 11 2 12 1 13
REMARK SMILES IDX 12 14 13 17 14 18 15 20 16 21 32 22 17 23 19 24 18 25 20 26
REMARK SMILES IDX 22 27 21 28 23 30 24 31 25 32 26 33 31 34 27 35 30 36 28 37
REMARK SMILES IDX 29 38
REMARK H PARENT 12 15 12 16 14 19 22 29 29 39
ROOT
ATOM      1  C   UNL     1       4.513   1.130  -0.103  1.00  0.00     0.106 C 
ENDROOT
BRANCH   1   2
ATOM      2  C   UNL     1       4.325   1.810  -1.466  1.00  0.00     0.167 C 
BRANCH   2   3
ATOM      3  N   UNL     1       5.087   3.048  -1.521  1.00  0.00    -0.251 N 
ATOM      4  C   UNL     1       6.605   4.610  -1.844  1.00  0.00     0.083 A 
ATOM      5  C   UNL     1       6.312   3.277  -2.021  1.00  0.00     0.134 A 
ATOM      6  N   UNL     1       5.535   5.155  -1.235  1.00  0.00    -0.135 NA
ATOM      7  N   UNL     1       4.634   4.197  -1.051  1.00  0.00    -0.067 NA
BRANCH   4   8
ATOM      8  C   UNL     1       7.815   5.384  -2.210  1.00  0.00     0.060 C 
BRANCH   8   9
ATOM      9  C   UNL     1       8.952   5.147  -1.268  1.00  0.00     0.006 C 
BRANCH   9  10
ATOM     10  C   UNL     1       8.973   3.762  -0.710  1.00  0.00     0.000 C 
BRANCH  10  11
ATOM     11  C   UNL     1       9.596   2.790  -1.674  1.00  0.00    -0.000 C 
BRANCH  11  12
ATOM     12  C   UNL     1       9.376   1.397  -1.131  1.00  0.00    -0.003 C 
ATOM     13  C   UNL     1       8.710   1.453   0.240  1.00  0.00     0.004 C 
ENDBRANCH  11  12
ENDBRANCH  10  11
ENDBRANCH   9  10
ENDBRANCH   8   9
ENDBRANCH   4   8
ENDBRANCH   2   3
ENDBRANCH   1   2
BRANCH   1  14
ATOM     14  N   UNL     1       4.086  -0.226  -0.239  1.00  0.00    -0.324 NA
ATOM     15  H   UNL     1       4.409  -0.796   0.553  1.00  0.00     0.119 HD
ATOM     16  H   UNL     1       3.063  -0.333  -0.416  1.00  0.00     0.119 HD
ENDBRANCH   1  14
BRANCH   1  17
ATOM     17  C   UNL     1       3.731   1.838   0.934  1.00  0.00     0.163 C 
BRANCH  17  18
ATOM     18  O   UNL     1       2.391   2.082   0.569  1.00  0.00    -0.387 OA
ATOM     19  H   UNL     1       2.184   3.034   0.781  1.00  0.00     0.211 HD
ENDBRANCH  17  18
BRANCH  17  20
ATOM     20  C   UNL     1       4.306   3.099   1.438  1.00  0.00    -0.017 A 
ATOM     21  C   UNL     1       3.649   4.297   1.524  1.00  0.00     0.006 A 
ATOM     22  C   UNL     1       5.627   3.068   1.851  1.00  0.00     0.020 A 
ATOM     23  C   UNL     1       4.247   5.460   2.001  1.00  0.00     0.001 A 
ATOM     24  C   UNL     1       6.266   4.192   2.332  1.00  0.00     0.040 A 
ATOM     25  C   UNL     1       5.564   5.377   2.400  1.00  0.00     0.014 A 
BRANCH  24  26
ATOM     26  C   UNL     1       7.663   4.069   2.747  1.00  0.00     0.251 C 
ATOM     27  N   UNL     1       8.084   3.273   3.839  1.00  0.00    -0.352 N 
ATOM     28  O   UNL     1       8.590   4.692   2.126  1.00  0.00    -0.269 OA
ATOM     29  H   UNL     1       7.374   2.740   4.388  1.00  0.00     0.163 HD
BRANCH  27  30
ATOM     30  C   UNL     1       9.489   3.202   4.189  1.00  0.00     0.121 C 
BRANCH  30  31
ATOM     31  C   UNL     1       9.698   2.092   5.178  1.00  0.00     0.057 C 
BRANCH  31  32
ATOM     32  C   UNL     1       9.230   0.829   4.554  1.00  0.00    -0.046 A 
ATOM     33  C   UNL     1       8.851   0.884   3.218  1.00  0.00     0.007 A 
ATOM     34  C   UNL     1       9.152  -0.369   5.212  1.00  0.00     0.007 A 
ATOM     35  C   UNL     1       8.403  -0.218   2.538  1.00  0.00     0.046 A 
ATOM     36  C   UNL     1       8.709  -1.503   4.572  1.00  0.00     0.046 A 
ATOM     37  C   UNL     1       8.340  -1.411   3.243  1.00  0.00     0.115 A 
BRANCH  37  38
ATOM     38  O   UNL     1       7.884  -2.522   2.538  1.00  0.00    -0.508 OA
ATOM     39  H   UNL     1       7.516  -2.363   1.620  1.00  0.00     0.293 HD
ENDBRANCH  37  38
ENDBRANCH  31  32
ENDBRANCH  30  31
ENDBRANCH  27  30
ENDBRANCH  24  26
ENDBRANCH  17  20
ENDBRANCH   1  17
TORSDOF 16
ENDMDL
MODEL 2
REMARK VINA RESULT:       0.9      2.372      5.108
REMARK SMILES CCCCCCc1cn(CC(N)C(O)c2cccc(C(=O)NCCc3ccc(O)cc3)c2)nn1
REMARK SMILES IDX 11 1 10 2 9 3 7 4 8 5 34 6 33 7 6 8 5 9 4 10 3 11 2 12 1 13
REMARK SMILES IDX 12 14 13 17 14 18 15 20 16 21 32 22 17 23 19 24 18 25 20 26
REMARK SMILES IDX 22 27 21 28 23 30 24 31 25 32 26 33 31 34 27 35 30 36 28 37
REMARK SMILES IDX 29 38
REMARK H PARENT 12 15 12 16 14 19 22 29 29 39
ROOT
ATOM      1  C   UNL     1       3.708  -0.996   0.236  1.00  0.00     0.106 C 
ENDROOT
BRANCH   1   2
ATOM      2  C   UNL     1       4.994  -1.543  -0.397  1.00  0.00     0.167 C 
BRANCH   2   3
ATOM      3  N   UNL     1       6.134  -1.277   0.468  1.00  0.00    -0.251 N 
ATOM      4  C   UNL     1       7.793  -0.372   1.597  1.00  0.00     0.083 A 
ATOM      5  C   UNL     1       6.778  -0.123   0.702  1.00  0.00     0.134 A 
ATOM      6  N   UNL     1       7.732  -1.687   1.881  1.00  0.00    -0.135 NA
ATOM      7  N   UNL     1       6.726  -2.211   1.191  1.00  0.00    -0.067 NA
BRANCH   4   8
ATOM      8  C   UNL     1       8.798   0.543   2.188  1.00  0.00     0.060 C 
BRANCH   8   9
ATOM      9  C   UNL     1       9.725  -0.159   3.129  1.00  0.00     0.006 C 
BRANCH   9  10
ATOM     10  C   UNL     1       9.545   0.258   4.552  1.00  0.00     0.000 C 
BRANCH  10  11
ATOM     11  C   UNL     1       8.388  -0.458   5.191  1.00  0.00    -0.000 C 
BRANCH  11  12
ATOM     12  C   UNL     1       7.117   0.064   4.561  1.00  0.00    -0.003 C 
ATOM     13  C   UNL     1       6.039  -1.015   4.549  1.00  0.00     0.004 C 
ENDBRANCH  11  12
ENDBRANCH  10  11
ENDBRANCH   9  10
ENDBRANCH   8   9
ENDBRANCH   4   8
ENDBRANCH   2   3
ENDBRANCH   1   2
BRANCH   1  14
ATOM     14  N   UNL     1       2.685  -1.051  -0.760  1.00  0.00    -0.324 NA
ATOM     15  H   UNL     1       3.046  -0.761  -1.678  1.00  0.00     0.119 HD
ATOM     16  H   UNL     1       2.181  -1.965  -0.801  1.00  0.00     0.119 HD
ENDBRANCH   1  14
BRANCH   1  17
ATOM     17  C   UNL     1       3.920   0.389   0.712  1.00  0.00     0.163 C 
BRANCH  17  18
ATOM     18  O   UNL     1       2.826   0.918   1.427  1.00  0.00    -0.387 OA
ATOM     19  H   UNL     1       2.188   0.173   1.606  1.00  0.00     0.211 HD
ENDBRANCH  17  18
BRANCH  17  20
ATOM     20  C   UNL     1       4.322   1.374  -0.308  1.00  0.00    -0.017 A 
ATOM     21  C   UNL     1       3.739   1.535  -1.536  1.00  0.00     0.006 A 
ATOM     22  C   UNL     1       5.388   2.203   0.002  1.00  0.00     0.020 A 
ATOM     23  C   UNL     1       4.167   2.480  -2.464  1.00  0.00     0.001 A 
ATOM     24  C   UNL     1       5.851   3.155  -0.882  1.00  0.00     0.040 A 
ATOM     25  C   UNL     1       5.232   3.280  -2.108  1.00  0.00     0.014 A 
BRANCH  24  26
ATOM     26  C   UNL     1       6.982   3.986  -0.473  1.00  0.00     0.251 C 
ATOM     27  N   UNL     1       8.224   3.458  -0.048  1.00  0.00    -0.352 N 
ATOM     28  O   UNL     1       6.896   5.262  -0.480  1.00  0.00    -0.269 OA
ATOM     29  H   UNL     1       8.358   2.423  -0.020  1.00  0.00     0.163 HD
BRANCH  27  30
ATOM     30  C   UNL     1       9.299   4.348   0.343  1.00  0.00     0.121 C 
BRANCH  30  31
ATOM     31  C   UNL     1       9.541   4.216   1.819  1.00  0.00     0.057 C 
BRANCH  31  32
ATOM     32  C   UNL     1       8.230   4.317   2.508  1.00  0.00    -0.046 A 
ATOM     33  C   UNL     1       7.672   5.584   2.629  1.00  0.00     0.007 A 
ATOM     34  C   UNL     1       7.550   3.246   3.025  1.00  0.00     0.007 A 
ATOM     35  C   UNL     1       6.467   5.799   3.245  1.00  0.00     0.046 A 
ATOM     36  C   UNL     1       6.338   3.411   3.653  1.00  0.00     0.046 A 
ATOM     37  C   UNL     1       5.814   4.686   3.753  1.00  0.00     0.115 A 
BRANCH  37  38
ATOM     38  O   UNL     1       4.590   4.920   4.376  1.00  0.00    -0.508 OA
ATOM     39  H   UNL     1       4.567   4.864   5.376  1.00  0.00     0.293 HD
ENDBRANCH  37  38
ENDBRANCH  31  32
ENDBRANCH  30  31
ENDBRANCH  27  30
ENDBRANCH  24  26
ENDBRANCH  17  20
ENDBRANCH   1  17
TORSDOF 16
ENDMDL
MODEL 3
REMARK VINA RESULT:       1.3      2.314      5.136
REMARK SMILES CCCCCCc1cn(CC(N)C(O)c2cccc(C(=O)NCCc3ccc(O)cc3)c2)nn1
REMARK SMILES IDX 11 1 10 2 9 3 7 4 8 5 34 6 33 7 6 8 5 9 4 10 3 11 2 12 1 13
REMARK SMILES IDX 12 14 13 17 14 18 15 20 16 21 32 22 17 23 19 24 18 25 20 26
REMARK SMILES IDX 22 27 21 28 23 30 24 31 25 32 26 33 31 34 27 35 30 36 28 37
REMARK SMILES IDX 29 38
REMARK H PARENT 12 15 12 16 14 19 22 29 29 39
ROOT
ATOM      1  C   UNL     1       5.397  -1.102   0.770  1.00  0.00     0.106 C 
ENDROOT
BRANCH   1   2
ATOM      2  C   UNL     1       6.474  -2.158   1.052  1.00  0.00     0.167 C 
BRANCH   2   3
ATOM      3  N   UNL     1       7.473  -1.627   1.967  1.00  0.00    -0.251 N 
ATOM      4  C   UNL     1       8.748  -0.357   3.236  1.00  0.00     0.083 A 
ATOM      5  C   UNL     1       7.689  -0.361   2.356  1.00  0.00     0.134 A 
ATOM      6  N   UNL     1       9.145  -1.639   3.354  1.00  0.00    -0.135 NA
ATOM      7  N   UNL     1       8.363  -2.385   2.582  1.00  0.00    -0.067 NA
BRANCH   4   8
ATOM      8  C   UNL     1       9.393   0.765   3.957  1.00  0.00     0.060 C 
BRANCH   8   9
ATOM      9  C   UNL     1       8.616   2.038   3.845  1.00  0.00     0.006 C 
BRANCH   9  10
ATOM     10  C   UNL     1       9.484   3.252   3.779  1.00  0.00     0.000 C 
BRANCH  10  11
ATOM     11  C   UNL     1       8.781   4.394   3.099  1.00  0.00    -0.000 C 
BRANCH  11  12
ATOM     12  C   UNL     1       7.315   4.309   3.455  1.00  0.00    -0.003 C 
ATOM     13  C   UNL     1       6.943   2.891   3.874  1.00  0.00     0.004 C 
ENDBRANCH  11  12
ENDBRANCH  10  11
ENDBRANCH   9  10
ENDBRANCH   8   9
ENDBRANCH   4   8
ENDBRANCH   2   3
ENDBRANCH   1   2
BRANCH   1  14
ATOM     14  N   UNL     1       5.554  -0.681  -0.586  1.00  0.00    -0.324 NA
ATOM     15  H   UNL     1       4.686  -0.822  -1.119  1.00  0.00     0.119 HD
ATOM     16  H   UNL     1       5.933   0.286  -0.689  1.00  0.00     0.119 HD
ENDBRANCH   1  14
BRANCH   1  17
ATOM     17  C   UNL     1       5.538   0.036   1.706  1.00  0.00     0.163 C 
BRANCH  17  18
ATOM     18  O   UNL     1       5.124  -0.255   3.022  1.00  0.00    -0.387 OA
ATOM     19  H   UNL     1       4.923   0.609   3.478  1.00  0.00     0.211 HD
ENDBRANCH  17  18
BRANCH  17  20
ATOM     20  C   UNL     1       4.904   1.301   1.294  1.00  0.00    -0.017 A 
ATOM     21  C   UNL     1       3.601   1.653   1.526  1.00  0.00     0.006 A 
ATOM     22  C   UNL     1       5.693   2.208   0.606  1.00  0.00     0.020 A 
ATOM     23  C   UNL     1       3.053   2.861   1.106  1.00  0.00     0.001 A 
ATOM     24  C   UNL     1       5.199   3.418   0.169  1.00  0.00     0.040 A 
ATOM     25  C   UNL     1       3.880   3.729   0.425  1.00  0.00     0.014 A 
BRANCH  24  26
ATOM     26  C   UNL     1       6.103   4.315  -0.550  1.00  0.00     0.251 C 
ATOM     27  N   UNL     1       7.490   4.400  -0.284  1.00  0.00    -0.352 N 
ATOM     28  O   UNL     1       5.669   5.083  -1.475  1.00  0.00    -0.269 OA
ATOM     29  H   UNL     1       7.907   3.799   0.461  1.00  0.00     0.163 HD
BRANCH  27  30
ATOM     30  C   UNL     1       8.322   5.315  -1.040  1.00  0.00     0.121 C 
BRANCH  30  31
ATOM     31  C   UNL     1       9.727   4.789  -1.082  1.00  0.00     0.057 C 
BRANCH  31  32
ATOM     32  C   UNL     1       9.671   3.317  -0.891  1.00  0.00    -0.046 A 
ATOM     33  C   UNL     1       9.732   2.526  -2.032  1.00  0.00     0.007 A 
ATOM     34  C   UNL     1       9.564   2.706   0.330  1.00  0.00     0.007 A 
ATOM     35  C   UNL     1       9.688   1.158  -1.978  1.00  0.00     0.046 A 
ATOM     36  C   UNL     1       9.517   1.335   0.436  1.00  0.00     0.046 A 
ATOM     37  C   UNL     1       9.580   0.581  -0.721  1.00  0.00     0.115 A 
BRANCH  37  38
ATOM     38  O   UNL     1       9.538  -0.811  -0.683  1.00  0.00    -0.508 OA
ATOM     39  H   UNL     1       9.624  -1.297  -1.554  1.00  0.00     0.293 HD
ENDBRANCH  37  38
ENDBRANCH  31  32
ENDBRANCH  30  31
ENDBRANCH  27  30
ENDBRANCH  24  26
ENDBRANCH  17  20
ENDBRANCH   1  17
TORSDOF 16
ENDMDL
MODEL 4
REMARK VINA RESULT:       1.4      2.630      4.813
REMARK SMILES CCCCCCc1cn(CC(N)C(O)c2cccc(C(=O)NCCc3ccc(O)cc3)c2)nn1
REMARK SMILES IDX 11 1 10 2 9 3 7 4 8 5 34 6 33 7 6 8 5 9 4 10 3 11 2 12 1 13
REMARK SMILES IDX 12 14 13 17 14 18 15 20 16 21 32 22 17 23 19 24 18 25 20 26
REMARK SMILES IDX 22 27 21 28 23 30 24 31 25 32 26 33 31 34 27 35 30 36 28 37
REMARK SMILES IDX 29 38
REMARK H PARENT 12 15 12 16 14 19 22 29 29 39
ROOT
ATOM      1  C   UNL     1       7.583   1.317  -1.546  1.00  0.00     0.106 C 
ENDROOT
BRANCH   1   2
ATOM      2  C   UNL     1       7.886   1.529  -0.056  1.00  0.00     0.167 C 
BRANCH   2   3
ATOM      3  N   UNL     1       6.946   0.778   0.762  1.00  0.00    -0.251 N 
ATOM      4  C   UNL     1       5.190   0.042   1.867  1.00  0.00     0.083 A 
ATOM      5  C   UNL     1       5.665   1.049   1.058  1.00  0.00     0.134 A 
ATOM      6  N   UNL     1       6.211  -0.819   2.038  1.00  0.00    -0.135 NA
ATOM      7  N   UNL     1       7.257  -0.356   1.363  1.00  0.00    -0.067 NA
BRANCH   4   8
ATOM      8  C   UNL     1       3.853  -0.151   2.476  1.00  0.00     0.060 C 
BRANCH   8   9
ATOM      9  C   UNL     1       2.747   0.323   1.587  1.00  0.00     0.006 C 
BRANCH   9  10
ATOM     10  C   UNL     1       2.835  -0.221   0.199  1.00  0.00     0.000 C 
BRANCH  10  11
ATOM     11  C   UNL     1       4.137   0.149  -0.455  1.00  0.00    -0.000 C 
BRANCH  11  12
ATOM     12  C   UNL     1       4.098   1.630  -0.754  1.00  0.00    -0.003 C 
ATOM     13  C   UNL     1       3.783   1.873  -2.226  1.00  0.00     0.004 C 
ENDBRANCH  11  12
ENDBRANCH  10  11
ENDBRANCH   9  10
ENDBRANCH   8   9
ENDBRANCH   4   8
ENDBRANCH   2   3
ENDBRANCH   1   2
BRANCH   1  14
ATOM     14  N   UNL     1       7.693  -0.083  -1.809  1.00  0.00    -0.324 NA
ATOM     15  H   UNL     1       8.118  -0.253  -2.730  1.00  0.00     0.119 HD
ATOM     16  H   UNL     1       8.162  -0.623  -1.049  1.00  0.00     0.119 HD
ENDBRANCH   1  14
BRANCH   1  17
ATOM     17  C   UNL     1       8.528   2.096  -2.376  1.00  0.00     0.163 C 
BRANCH  17  18
ATOM     18  O   UNL     1       9.700   1.390  -2.717  1.00  0.00    -0.387 OA
ATOM     19  H   UNL     1      10.475   1.870  -2.312  1.00  0.00     0.211 HD
ENDBRANCH  17  18
BRANCH  17  20
ATOM     20  C   UNL     1       8.923   3.416  -1.852  1.00  0.00    -0.017 A 
ATOM     21  C   UNL     1       9.374   4.470  -2.601  1.00  0.00     0.006 A 
ATOM     22  C   UNL     1       8.837   3.601  -0.482  1.00  0.00     0.020 A 
ATOM     23  C   UNL     1       9.740   5.694  -2.048  1.00  0.00     0.001 A 
ATOM     24  C   UNL     1       9.188   4.794   0.115  1.00  0.00     0.040 A 
ATOM     25  C   UNL     1       9.638   5.828  -0.680  1.00  0.00     0.014 A 
BRANCH  24  26
ATOM     26  C   UNL     1       9.066   4.902   1.568  1.00  0.00     0.251 C 
ATOM     27  N   UNL     1       8.321   3.993   2.357  1.00  0.00    -0.352 N 
ATOM     28  O   UNL     1       9.643   5.847   2.208  1.00  0.00    -0.269 OA
ATOM     29  H   UNL     1       7.827   3.199   1.894  1.00  0.00     0.163 HD
BRANCH  27  30
ATOM     30  C   UNL     1       8.248   4.167   3.794  1.00  0.00     0.121 C 
BRANCH  30  31
ATOM     31  C   UNL     1       9.432   3.504   4.436  1.00  0.00     0.057 C 
BRANCH  31  32
ATOM     32  C   UNL     1       9.290   2.037   4.252  1.00  0.00    -0.046 A 
ATOM     33  C   UNL     1       9.722   1.504   3.043  1.00  0.00     0.007 A 
ATOM     34  C   UNL     1       8.765   1.193   5.194  1.00  0.00     0.007 A 
ATOM     35  C   UNL     1       9.640   0.166   2.761  1.00  0.00     0.046 A 
ATOM     36  C   UNL     1       8.662  -0.158   4.958  1.00  0.00     0.046 A 
ATOM     37  C   UNL     1       9.102  -0.652   3.743  1.00  0.00     0.115 A 
BRANCH  37  38
ATOM     38  O   UNL     1       9.027  -2.010   3.443  1.00  0.00    -0.508 OA
ATOM     39  H   UNL     1       8.674  -2.618   4.156  1.00  0.00     0.293 HD
ENDBRANCH  37  38
ENDBRANCH  31  32
ENDBRANCH  30  31
ENDBRANCH  27  30
ENDBRANCH  24  26
ENDBRANCH  17  20
ENDBRANCH   1  17
TORSDOF 16
ENDMDL
MODEL 5
REMARK VINA RESULT:       2.5      2.026      5.592
REMARK SMILES CCCCCCc1cn(CC(N)C(O)c2cccc(C(=O)NCCc3ccc(O)cc3)c2)nn1
REMARK SMILES IDX 11 1 10 2 9 3 7 4 8 5 34 6 33 7 6 8 5 9 4 10 3 11 2 12 1 13
REMARK SMILES IDX 12 14 13 17 14 18 15 20 16 21 32 22 17 23 19 24 18 25 20 26
REMARK SMILES IDX 22 27 21 28 23 30 24 31 25 32 26 33 31 34 27 35 30 36 28 37
REMARK SMILES IDX 29 38
REMARK H PARENT 12 15 12 16 14 19 22 29 29 39
ROOT
ATOM      1  C   UNL     1       4.281  -0.206   1.094  1.00  0.00     0.106 C 
ENDROOT
BRANCH   1   2
ATOM      2  C   UNL     1       5.094   0.956   0.507  1.00  0.00     0.167 C 
BRANCH   2   3
ATOM      3  N   UNL     1       4.613   2.224   1.034  1.00  0.00    -0.251 N 
ATOM      4  C   UNL     1       4.376   4.163   2.050  1.00  0.00     0.083 A 
ATOM      5  C   UNL     1       5.240   3.117   1.817  1.00  0.00     0.134 A 
ATOM      6  N   UNL     1       3.239   3.868   1.392  1.00  0.00    -0.135 NA
ATOM      7  N   UNL     1       3.405   2.697   0.788  1.00  0.00    -0.067 NA
BRANCH   4   8
ATOM      8  C   UNL     1       4.560   5.401   2.843  1.00  0.00     0.060 C 
BRANCH   8   9
ATOM      9  C   UNL     1       6.001   5.769   3.001  1.00  0.00     0.006 C 
BRANCH   9  10
ATOM     10  C   UNL     1       6.636   5.151   4.203  1.00  0.00     0.000 C 
BRANCH  10  11
ATOM     11  C   UNL     1       8.002   5.726   4.459  1.00  0.00    -0.000 C 
BRANCH  11  12
ATOM     12  C   UNL     1       8.894   4.601   4.932  1.00  0.00    -0.003 C 
ATOM     13  C   UNL     1       8.508   3.289   4.258  1.00  0.00     0.004 C 
ENDBRANCH  11  12
ENDBRANCH  10  11
ENDBRANCH   9  10
ENDBRANCH   8   9
ENDBRANCH   4   8
ENDBRANCH   2   3
ENDBRANCH   1   2
BRANCH   1  14
ATOM     14  N   UNL     1       2.910   0.193   1.104  1.00  0.00    -0.324 NA
ATOM     15  H   UNL     1       2.596   0.412   2.058  1.00  0.00     0.119 HD
ATOM     16  H   UNL     1       2.684   0.955   0.426  1.00  0.00     0.119 HD
ENDBRANCH   1  14
BRANCH   1  17
ATOM     17  C   UNL     1       4.757  -0.527   2.458  1.00  0.00     0.163 C 
BRANCH  17  18
ATOM     18  O   UNL     1       4.043   0.132   3.479  1.00  0.00    -0.387 OA
ATOM     19  H   UNL     1       3.638   0.955   3.088  1.00  0.00     0.211 HD
ENDBRANCH  17  18
BRANCH  17  20
ATOM     20  C   UNL     1       6.197  -0.335   2.708  1.00  0.00    -0.017 A 
ATOM     21  C   UNL     1       6.895  -0.831   3.776  1.00  0.00     0.006 A 
ATOM     22  C   UNL     1       6.902   0.420   1.786  1.00  0.00     0.020 A 
ATOM     23  C   UNL     1       8.256  -0.611   3.966  1.00  0.00     0.001 A 
ATOM     24  C   UNL     1       8.252   0.668   1.926  1.00  0.00     0.040 A 
ATOM     25  C   UNL     1       8.913   0.147   3.020  1.00  0.00     0.014 A 
BRANCH  24  26
ATOM     26  C   UNL     1       8.917   1.476   0.905  1.00  0.00     0.251 C 
ATOM     27  N   UNL     1       8.726   1.285  -0.485  1.00  0.00    -0.352 N 
ATOM     28  O   UNL     1       9.722   2.414   1.230  1.00  0.00    -0.269 OA
ATOM     29  H   UNL     1       8.081   0.534  -0.815  1.00  0.00     0.163 HD
BRANCH  27  30
ATOM     30  C   UNL     1       9.422   2.128  -1.437  1.00  0.00     0.121 C 
BRANCH  30  31
ATOM     31  C   UNL     1       9.265   3.566  -1.036  1.00  0.00     0.057 C 
BRANCH  31  32
ATOM     32  C   UNL     1       7.862   3.967  -1.311  1.00  0.00    -0.046 A 
ATOM     33  C   UNL     1       7.294   4.910  -0.463  1.00  0.00     0.007 A 
ATOM     34  C   UNL     1       7.109   3.468  -2.340  1.00  0.00     0.007 A 
ATOM     35  C   UNL     1       6.008   5.356  -0.620  1.00  0.00     0.046 A 
ATOM     36  C   UNL     1       5.813   3.885  -2.538  1.00  0.00     0.046 A 
ATOM     37  C   UNL     1       5.282   4.824  -1.674  1.00  0.00     0.115 A 
BRANCH  37  38
ATOM     38  O   UNL     1       3.976   5.288  -1.821  1.00  0.00    -0.508 OA
ATOM     39  H   UNL     1       3.660   5.479  -2.752  1.00  0.00     0.293 HD
ENDBRANCH  37  38
ENDBRANCH  31  32
ENDBRANCH  30  31
ENDBRANCH  27  30
ENDBRANCH  24  26
ENDBRANCH  17  20
ENDBRANCH   1  17
TORSDOF 16
ENDMDL
