MODEL 1
REMARK VINA RESULT:      -3.9      0.000      0.000
REMARK SMILES COc1ccc(C2NC(=S)N=C(C)C2C(C)=O)cc1
REMARK SMILES IDX 3 1 4 2 5 3 6 4 18 5 19 6 2 7 1 8 7 9 8 10 14 11 9 12 12 13
REMARK SMILES IDX 11 14 10 16 13 17 15 18 16 19 17 20
REMARK H PARENT 8 15
ROOT
ATOM      1  C   UNL     1       8.404  -0.629   3.664  1.00  0.00     0.118 A 
ATOM      2  C   UNL     1       8.879  -0.875   2.379  1.00  0.00     0.047 A 
ATOM      3  C   UNL     1       8.393  -0.110   1.337  1.00  0.00     0.010 A 
ATOM      4  C   UNL     1       7.443   0.891   1.581  1.00  0.00    -0.024 A 
ATOM      5  C   UNL     1       6.967   1.140   2.854  1.00  0.00     0.010 A 
ATOM      6  C   UNL     1       7.468   0.358   3.891  1.00  0.00     0.047 A 
ENDROOT
BRANCH   1   7
ATOM      7  O   UNL     1       8.930  -1.430   4.669  1.00  0.00    -0.497 OA
ATOM      8  C   UNL     1       9.738  -2.570   4.359  1.00  0.00     0.278 C 
ENDBRANCH   1   7
BRANCH   4   9
ATOM      9  C   UNL     1       6.985   1.639   0.381  1.00  0.00     0.128 C 
ATOM     10  N   UNL     1       6.795   3.048   0.722  1.00  0.00    -0.353 N 
ATOM     11  C   UNL     1       5.855   1.029  -0.359  1.00  0.00     0.127 C 
ATOM     12  C   UNL     1       5.762   3.848   0.185  1.00  0.00     0.193 C 
ATOM     13  C   UNL     1       4.839   1.983  -0.851  1.00  0.00     0.031 C 
ATOM     14  N   UNL     1       4.780   3.232  -0.623  1.00  0.00    -0.229 NA
ATOM     15  H   UNL     1       7.482   3.441   1.403  1.00  0.00     0.163 HD
ATOM     16  S   UNL     1       5.701   5.457   0.489  1.00  0.00    -0.039 S 
ATOM     17  C   UNL     1       3.752   1.407  -1.722  1.00  0.00     0.063 C 
BRANCH  11  18
ATOM     18  C   UNL     1       5.132  -0.059   0.382  1.00  0.00     0.140 C 
ATOM     19  C   UNL     1       4.122   0.203   1.436  1.00  0.00     0.088 C 
ATOM     20  O   UNL     1       5.357  -1.253   0.137  1.00  0.00    -0.299 OA
ENDBRANCH  11  18
ENDBRANCH   4   9
TORSDOF 3
ENDMDL
MODEL 2
REMARK VINA RESULT:      -3.6      2.007      2.211
REMARK SMILES COc1ccc(C2NC(=S)N=C(C)C2C(C)=O)cc1
REMARK SMILES IDX 3 1 4 2 5 3 6 4 18 5 19 6 2 7 1 8 7 9 8 10 14 11 9 12 12 13
REMARK SMILES IDX 11 14 10 16 13 17 15 18 16 19 17 20
REMARK H PARENT 8 15
ROOT
ATOM      1  C   UNL     1       8.102  -0.155   3.557  1.00  0.00     0.118 A 
ATOM      2  C   UNL     1       7.448  -0.791   2.506  1.00  0.00     0.047 A 
ATOM      3  C   UNL     1       7.297  -0.112   1.313  1.00  0.00     0.010 A 
ATOM      4  C   UNL     1       7.798   1.189   1.175  1.00  0.00    -0.024 A 
ATOM      5  C   UNL     1       8.447   1.827   2.214  1.00  0.00     0.010 A 
ATOM      6  C   UNL     1       8.589   1.127   3.409  1.00  0.00     0.047 A 
ENDROOT
BRANCH   1   7
ATOM      7  O   UNL     1       8.222  -0.888   4.730  1.00  0.00    -0.497 OA
ATOM      8  C   UNL     1       9.504  -1.297   5.218  1.00  0.00     0.278 C 
ENDBRANCH   1   7
BRANCH   4   9
ATOM      9  C   UNL     1       7.565   1.823  -0.150  1.00  0.00     0.128 C 
ATOM     10  N   UNL     1       8.597   2.827  -0.403  1.00  0.00    -0.353 N 
ATOM     11  C   UNL     1       6.180   2.290  -0.399  1.00  0.00     0.127 C 
ATOM     12  C   UNL     1       8.351   4.046  -1.073  1.00  0.00     0.193 C 
ATOM     13  C   UNL     1       6.072   3.590  -1.094  1.00  0.00     0.031 C 
ATOM     14  N   UNL     1       7.018   4.381  -1.402  1.00  0.00    -0.229 NA
ATOM     15  H   UNL     1       9.551   2.588  -0.054  1.00  0.00     0.163 HD
ATOM     16  S   UNL     1       9.582   5.054  -1.462  1.00  0.00    -0.039 S 
ATOM     17  C   UNL     1       4.681   4.023  -1.481  1.00  0.00     0.063 C 
BRANCH  11  18
ATOM     18  C   UNL     1       5.309   2.357   0.822  1.00  0.00     0.140 C 
ATOM     19  C   UNL     1       5.398   3.441   1.830  1.00  0.00     0.088 C 
ATOM     20  O   UNL     1       4.457   1.484   1.044  1.00  0.00    -0.299 OA
ENDBRANCH  11  18
ENDBRANCH   4   9
TORSDOF 3
ENDMDL
MODEL 3
REMARK VINA RESULT:      -3.5      0.756      1.413
REMARK SMILES COc1ccc(C2NC(=S)N=C(C)C2C(C)=O)cc1
REMARK SMILES IDX 3 1 4 2 5 3 6 4 18 5 19 6 2 7 1 8 7 9 8 10 14 11 9 12 12 13
REMARK SMILES IDX 11 14 10 16 13 17 15 18 16 19 17 20
REMARK H PARENT 8 15
ROOT
ATOM      1  C   UNL     1       8.544  -0.648   4.035  1.00  0.00     0.118 A 
ATOM      2  C   UNL     1       7.430   0.181   4.133  1.00  0.00     0.047 A 
ATOM      3  C   UNL     1       7.014   0.865   3.008  1.00  0.00     0.010 A 
ATOM      4  C   UNL     1       7.707   0.721   1.799  1.00  0.00    -0.024 A 
ATOM      5  C   UNL     1       8.814  -0.099   1.694  1.00  0.00     0.010 A 
ATOM      6  C   UNL     1       9.219  -0.780   2.839  1.00  0.00     0.047 A 
ENDROOT
BRANCH   1   7
ATOM      7  O   UNL     1       8.914  -1.308   5.199  1.00  0.00    -0.497 OA
ATOM      8  C   UNL     1       9.722  -2.489   5.153  1.00  0.00     0.278 C 
ENDBRANCH   1   7
BRANCH   4   9
ATOM      9  C   UNL     1       7.174   1.517   0.662  1.00  0.00     0.128 C 
ATOM     10  N   UNL     1       6.958   2.899   1.087  1.00  0.00    -0.353 N 
ATOM     11  C   UNL     1       6.030   0.911  -0.060  1.00  0.00     0.127 C 
ATOM     12  C   UNL     1       5.880   3.693   0.638  1.00  0.00     0.193 C 
ATOM     13  C   UNL     1       4.965   1.857  -0.456  1.00  0.00     0.031 C 
ATOM     14  N   UNL     1       4.880   3.090  -0.159  1.00  0.00    -0.229 NA
ATOM     15  H   UNL     1       7.663   3.277   1.757  1.00  0.00     0.163 HD
ATOM     16  S   UNL     1       5.785   5.281   1.030  1.00  0.00    -0.039 S 
ATOM     17  C   UNL     1       3.858   1.293  -1.309  1.00  0.00     0.063 C 
BRANCH  11  18
ATOM     18  C   UNL     1       5.372  -0.236   0.652  1.00  0.00     0.140 C 
ATOM     19  C   UNL     1       5.685  -1.658   0.371  1.00  0.00     0.088 C 
ATOM     20  O   UNL     1       4.515  -0.036   1.525  1.00  0.00    -0.299 OA
ENDBRANCH  11  18
ENDBRANCH   4   9
TORSDOF 3
ENDMDL
MODEL 4
REMARK VINA RESULT:      -3.5      1.666      1.960
REMARK SMILES COc1ccc(C2NC(=S)N=C(C)C2C(C)=O)cc1
REMARK SMILES IDX 3 1 4 2 5 3 6 4 18 5 19 6 2 7 1 8 7 9 8 10 14 11 9 12 12 13
REMARK SMILES IDX 11 14 10 16 13 17 15 18 16 19 17 20
REMARK H PARENT 8 15
ROOT
ATOM      1  C   UNL     1       8.863  -1.198   2.486  1.00  0.00     0.118 A 
ATOM      2  C   UNL     1       9.314  -0.736   1.252  1.00  0.00     0.047 A 
ATOM      3  C   UNL     1       8.927   0.524   0.837  1.00  0.00     0.010 A 
ATOM      4  C   UNL     1       8.099   1.310   1.649  1.00  0.00    -0.024 A 
ATOM      5  C   UNL     1       7.647   0.857   2.874  1.00  0.00     0.010 A 
ATOM      6  C   UNL     1       8.047  -0.415   3.275  1.00  0.00     0.047 A 
ENDROOT
BRANCH   1   7
ATOM      7  O   UNL     1       9.285  -2.470   2.848  1.00  0.00    -0.497 OA
ATOM      8  C   UNL     1       9.740  -2.748   4.176  1.00  0.00     0.278 C 
ENDBRANCH   1   7
BRANCH   4   9
ATOM      9  C   UNL     1       7.739   2.640   1.091  1.00  0.00     0.128 C 
ATOM     10  N   UNL     1       7.665   3.623   2.171  1.00  0.00    -0.353 N 
ATOM     11  C   UNL     1       6.579   2.653   0.169  1.00  0.00     0.127 C 
ATOM     12  C   UNL     1       6.721   4.673   2.206  1.00  0.00     0.193 C 
ATOM     13  C   UNL     1       5.663   3.802   0.328  1.00  0.00     0.031 C 
ATOM     14  N   UNL     1       5.709   4.706   1.221  1.00  0.00    -0.229 NA
ATOM     15  H   UNL     1       8.367   3.504   2.935  1.00  0.00     0.163 HD
ATOM     16  S   UNL     1       6.794   5.830   3.364  1.00  0.00    -0.039 S 
ATOM     17  C   UNL     1       4.552   3.913  -0.684  1.00  0.00     0.063 C 
BRANCH  11  18
ATOM     18  C   UNL     1       5.744   1.405   0.191  1.00  0.00     0.140 C 
ATOM     19  C   UNL     1       5.830   0.347  -0.844  1.00  0.00     0.088 C 
ATOM     20  O   UNL     1       4.923   1.204   1.099  1.00  0.00    -0.299 OA
ENDBRANCH  11  18
ENDBRANCH   4   9
TORSDOF 3
ENDMDL
MODEL 5
REMARK VINA RESULT:      -3.5      2.440      3.141
REMARK SMILES COc1ccc(C2NC(=S)N=C(C)C2C(C)=O)cc1
REMARK SMILES IDX 3 1 4 2 5 3 6 4 18 5 19 6 2 7 1 8 7 9 8 10 14 11 9 12 12 13
REMARK SMILES IDX 11 14 10 16 13 17 15 18 16 19 17 20
REMARK H PARENT 8 15
ROOT
ATOM      1  C   UNL     1       7.887  -0.930   2.586  1.00  0.00     0.118 A 
ATOM      2  C   UNL     1       8.822  -0.350   1.732  1.00  0.00     0.047 A 
ATOM      3  C   UNL     1       8.382   0.563   0.793  1.00  0.00     0.010 A 
ATOM      4  C   UNL     1       7.021   0.890   0.712  1.00  0.00    -0.024 A 
ATOM      5  C   UNL     1       6.089   0.317   1.556  1.00  0.00     0.010 A 
ATOM      6  C   UNL     1       6.551  -0.601   2.495  1.00  0.00     0.047 A 
ENDROOT
BRANCH   1   7
ATOM      7  O   UNL     1       8.390  -1.840   3.507  1.00  0.00    -0.497 OA
ATOM      8  C   UNL     1       9.740  -2.307   3.423  1.00  0.00     0.278 C 
ENDBRANCH   1   7
BRANCH   4   9
ATOM      9  C   UNL     1       6.666   1.873  -0.344  1.00  0.00     0.128 C 
ATOM     10  N   UNL     1       7.710   1.895  -1.369  1.00  0.00    -0.353 N 
ATOM     11  C   UNL     1       6.257   3.212   0.142  1.00  0.00     0.127 C 
ATOM     12  C   UNL     1       8.120   3.068  -2.039  1.00  0.00     0.193 C 
ATOM     13  C   UNL     1       6.772   4.352  -0.646  1.00  0.00     0.031 C 
ATOM     14  N   UNL     1       7.595   4.310  -1.613  1.00  0.00    -0.229 NA
ATOM     15  H   UNL     1       8.146   0.971  -1.583  1.00  0.00     0.163 HD
ATOM     16  S   UNL     1       9.182   2.996  -3.284  1.00  0.00    -0.039 S 
ATOM     17  C   UNL     1       6.262   5.715  -0.256  1.00  0.00     0.063 C 
BRANCH  11  18
ATOM     18  C   UNL     1       6.573   3.482   1.585  1.00  0.00     0.140 C 
ATOM     19  C   UNL     1       7.946   3.733   2.087  1.00  0.00     0.088 C 
ATOM     20  O   UNL     1       5.675   3.505   2.440  1.00  0.00    -0.299 OA
ENDBRANCH  11  18
ENDBRANCH   4   9
TORSDOF 3
ENDMDL
MODEL 6
REMARK VINA RESULT:      -3.4      2.145      2.440
REMARK SMILES COc1ccc(C2NC(=S)N=C(C)C2C(C)=O)cc1
REMARK SMILES IDX 3 1 4 2 5 3 6 4 18 5 19 6 2 7 1 8 7 9 8 10 14 11 9 12 12 13
REMARK SMILES IDX 11 14 10 16 13 17 15 18 16 19 17 20
REMARK H PARENT 8 15
ROOT
ATOM      1  C   UNL     1       8.412  -0.823   2.696  1.00  0.00     0.118 A 
ATOM      2  C   UNL     1       9.231   0.205   2.237  1.00  0.00     0.047 A 
ATOM      3  C   UNL     1       8.811   0.951   1.154  1.00  0.00     0.010 A 
ATOM      4  C   UNL     1       7.584   0.671   0.538  1.00  0.00    -0.024 A 
ATOM      5  C   UNL     1       6.766  -0.348   0.987  1.00  0.00     0.010 A 
ATOM      6  C   UNL     1       7.207  -1.090   2.080  1.00  0.00     0.047 A 
ENDROOT
BRANCH   1   7
ATOM      7  O   UNL     1       8.887  -1.538   3.787  1.00  0.00    -0.497 OA
ATOM      8  C   UNL     1       8.913  -0.958   5.095  1.00  0.00     0.278 C 
ENDBRANCH   1   7
BRANCH   4   9
ATOM      9  C   UNL     1       7.245   1.532  -0.626  1.00  0.00     0.128 C 
ATOM     10  N   UNL     1       8.409   2.335  -0.999  1.00  0.00    -0.353 N 
ATOM     11  C   UNL     1       5.983   2.299  -0.505  1.00  0.00     0.127 C 
ATOM     12  C   UNL     1       8.320   3.666  -1.463  1.00  0.00     0.193 C 
ATOM     13  C   UNL     1       6.039   3.685  -1.017  1.00  0.00     0.031 C 
ATOM     14  N   UNL     1       7.061   4.307  -1.446  1.00  0.00    -0.229 NA
ATOM     15  H   UNL     1       9.332   1.859  -0.901  1.00  0.00     0.163 HD
ATOM     16  S   UNL     1       9.647   4.454  -2.012  1.00  0.00    -0.039 S 
ATOM     17  C   UNL     1       4.735   4.441  -1.032  1.00  0.00     0.063 C 
BRANCH  11  18
ATOM     18  C   UNL     1       5.409   2.353   0.881  1.00  0.00     0.140 C 
ATOM     19  C   UNL     1       6.026   3.119   1.991  1.00  0.00     0.088 C 
ATOM     20  O   UNL     1       4.367   1.741   1.163  1.00  0.00    -0.299 OA
ENDBRANCH  11  18
ENDBRANCH   4   9
TORSDOF 3
ENDMDL
MODEL 7
REMARK VINA RESULT:      -3.3      2.423      3.308
REMARK SMILES COc1ccc(C2NC(=S)N=C(C)C2C(C)=O)cc1
REMARK SMILES IDX 3 1 4 2 5 3 6 4 18 5 19 6 2 7 1 8 7 9 8 10 14 11 9 12 12 13
REMARK SMILES IDX 11 14 10 16 13 17 15 18 16 19 17 20
REMARK H PARENT 8 15
ROOT
ATOM      1  C   UNL     1       8.558   0.319   1.485  1.00  0.00     0.118 A 
ATOM      2  C   UNL     1       7.686   0.744   2.483  1.00  0.00     0.047 A 
ATOM      3  C   UNL     1       7.210   2.040   2.437  1.00  0.00     0.010 A 
ATOM      4  C   UNL     1       7.603   2.899   1.401  1.00  0.00    -0.024 A 
ATOM      5  C   UNL     1       8.469   2.483   0.408  1.00  0.00     0.010 A 
ATOM      6  C   UNL     1       8.938   1.173   0.472  1.00  0.00     0.047 A 
ENDROOT
BRANCH   1   7
ATOM      7  O   UNL     1       9.002  -0.993   1.585  1.00  0.00    -0.497 OA
ATOM      8  C   UNL     1       8.974  -1.689   2.836  1.00  0.00     0.278 C 
ENDBRANCH   1   7
BRANCH   4   9
ATOM      9  C   UNL     1       7.037   4.271   1.464  1.00  0.00     0.128 C 
ATOM     10  N   UNL     1       6.691   4.599   2.847  1.00  0.00    -0.353 N 
ATOM     11  C   UNL     1       5.971   4.568   0.478  1.00  0.00     0.127 C 
ATOM     12  C   UNL     1       5.561   5.366   3.206  1.00  0.00     0.193 C 
ATOM     13  C   UNL     1       4.841   5.367   0.996  1.00  0.00     0.031 C 
ATOM     14  N   UNL     1       4.641   5.731   2.197  1.00  0.00    -0.229 NA
ATOM     15  H   UNL     1       7.340   4.224   3.572  1.00  0.00     0.163 HD
ATOM     16  S   UNL     1       5.318   5.827   4.759  1.00  0.00    -0.039 S 
ATOM     17  C   UNL     1       3.811   5.797  -0.017  1.00  0.00     0.063 C 
BRANCH  11  18
ATOM     18  C   UNL     1       5.395   3.362  -0.208  1.00  0.00     0.140 C 
ATOM     19  C   UNL     1       4.444   2.429   0.443  1.00  0.00     0.088 C 
ATOM     20  O   UNL     1       5.701   3.089  -1.378  1.00  0.00    -0.299 OA
ENDBRANCH  11  18
ENDBRANCH   4   9
TORSDOF 3
ENDMDL
MODEL 8
REMARK VINA RESULT:      -3.3      2.498      3.172
REMARK SMILES COc1ccc(C2NC(=S)N=C(C)C2C(C)=O)cc1
REMARK SMILES IDX 3 1 4 2 5 3 6 4 18 5 19 6 2 7 1 8 7 9 8 10 14 11 9 12 12 13
REMARK SMILES IDX 11 14 10 16 13 17 15 18 16 19 17 20
REMARK H PARENT 8 15
ROOT
ATOM      1  C   UNL     1       8.467  -0.899   2.792  1.00  0.00     0.118 A 
ATOM      2  C   UNL     1       7.103  -0.764   2.545  1.00  0.00     0.047 A 
ATOM      3  C   UNL     1       6.698   0.045   1.502  1.00  0.00     0.010 A 
ATOM      4  C   UNL     1       7.648   0.711   0.716  1.00  0.00    -0.024 A 
ATOM      5  C   UNL     1       9.003   0.583   0.956  1.00  0.00     0.010 A 
ATOM      6  C   UNL     1       9.392  -0.237   2.013  1.00  0.00     0.047 A 
ENDROOT
BRANCH   1   7
ATOM      7  O   UNL     1       8.812  -1.725   3.853  1.00  0.00    -0.497 OA
ATOM      8  C   UNL     1       9.735  -1.291   4.858  1.00  0.00     0.278 C 
ENDBRANCH   1   7
BRANCH   4   9
ATOM      9  C   UNL     1       7.092   1.563  -0.368  1.00  0.00     0.128 C 
ATOM     10  N   UNL     1       8.089   1.728  -1.425  1.00  0.00    -0.353 N 
ATOM     11  C   UNL     1       6.454   2.825   0.076  1.00  0.00     0.127 C 
ATOM     12  C   UNL     1       8.260   2.925  -2.155  1.00  0.00     0.193 C 
ATOM     13  C   UNL     1       6.731   4.002  -0.774  1.00  0.00     0.031 C 
ATOM     14  N   UNL     1       7.525   4.068  -1.764  1.00  0.00    -0.229 NA
ATOM     15  H   UNL     1       8.684   0.892  -1.615  1.00  0.00     0.163 HD
ATOM     16  S   UNL     1       9.287   2.993  -3.429  1.00  0.00    -0.039 S 
ATOM     17  C   UNL     1       5.987   5.265  -0.424  1.00  0.00     0.063 C 
BRANCH  11  18
ATOM     18  C   UNL     1       6.749   3.214   1.496  1.00  0.00     0.140 C 
ATOM     19  C   UNL     1       8.046   3.783   1.934  1.00  0.00     0.088 C 
ATOM     20  O   UNL     1       5.897   3.070   2.386  1.00  0.00    -0.299 OA
ENDBRANCH  11  18
ENDBRANCH   4   9
TORSDOF 3
ENDMDL
MODEL 9
REMARK VINA RESULT:      -3.3      2.117      3.021
REMARK SMILES COc1ccc(C2NC(=S)N=C(C)C2C(C)=O)cc1
REMARK SMILES IDX 3 1 4 2 5 3 6 4 18 5 19 6 2 7 1 8 7 9 8 10 14 11 9 12 12 13
REMARK SMILES IDX 11 14 10 16 13 17 15 18 16 19 17 20
REMARK H PARENT 8 15
ROOT
ATOM      1  C   UNL     1       7.009  -0.503   1.696  1.00  0.00     0.118 A 
ATOM      2  C   UNL     1       7.725   0.689   1.768  1.00  0.00     0.047 A 
ATOM      3  C   UNL     1       7.435   1.690   0.861  1.00  0.00     0.010 A 
ATOM      4  C   UNL     1       6.439   1.498  -0.106  1.00  0.00    -0.024 A 
ATOM      5  C   UNL     1       5.725   0.317  -0.183  1.00  0.00     0.010 A 
ATOM      6  C   UNL     1       6.032  -0.681   0.739  1.00  0.00     0.047 A 
ENDROOT
BRANCH   1   7
ATOM      7  O   UNL     1       7.346  -1.471   2.633  1.00  0.00    -0.497 OA
ATOM      8  C   UNL     1       8.670  -1.549   3.171  1.00  0.00     0.278 C 
ENDBRANCH   1   7
BRANCH   4   9
ATOM      9  C   UNL     1       6.225   2.639  -1.033  1.00  0.00     0.128 C 
ATOM     10  N   UNL     1       7.482   3.362  -1.223  1.00  0.00    -0.353 N 
ATOM     11  C   UNL     1       5.061   3.503  -0.724  1.00  0.00     0.127 C 
ATOM     12  C   UNL     1       7.560   4.765  -1.365  1.00  0.00     0.193 C 
ATOM     13  C   UNL     1       5.290   4.953  -0.901  1.00  0.00     0.031 C 
ATOM     14  N   UNL     1       6.386   5.530  -1.184  1.00  0.00    -0.229 NA
ATOM     15  H   UNL     1       8.340   2.769  -1.249  1.00  0.00     0.163 HD
ATOM     16  S   UNL     1       8.981   5.494  -1.731  1.00  0.00    -0.039 S 
ATOM     17  C   UNL     1       4.087   5.843  -0.725  1.00  0.00     0.063 C 
BRANCH  11  18
ATOM     18  C   UNL     1       4.474   3.303   0.644  1.00  0.00     0.140 C 
ATOM     19  C   UNL     1       4.937   4.037   1.847  1.00  0.00     0.088 C 
ATOM     20  O   UNL     1       3.554   2.492   0.830  1.00  0.00    -0.299 OA
ENDBRANCH  11  18
ENDBRANCH   4   9
TORSDOF 3
ENDMDL
