MODEL 1
REMARK VINA RESULT:      -1.0      0.000      0.000
REMARK SMILES CC(C)CC(NC(=O)C(=NC(O)C1CCC(C)CC1)C(C)C)C(=O)CNC(C)C
REMARK SMILES IDX 6 1 7 2 8 3 5 5 4 6 2 7 1 8 3 9 23 10 24 11 25 12 26 13
REMARK SMILES IDX 27 15 28 16 29 17 9 18 10 19 11 20 12 21 13 23 14 24 19 25
REMARK SMILES IDX 15 26 18 27 16 28 17 29 20 30 21 31 22 32
REMARK H PARENT 6 4 26 14 12 22
ROOT
ATOM      1  N   UNL     1       5.711   3.194   0.046  1.00  0.00    -0.341 N 
ATOM      2  C   UNL     1       4.775   2.752  -0.919  1.00  0.00     0.266 C 
ATOM      3  O   UNL     1       4.074   3.550  -1.601  1.00  0.00    -0.268 OA
ATOM      4  H   UNL     1       6.322   2.566   0.614  1.00  0.00     0.164 HD
ENDROOT
BRANCH   1   5
ATOM      5  C   UNL     1       5.857   4.707   0.281  1.00  0.00     0.151 C 
BRANCH   5   6
ATOM      6  C   UNL     1       7.024   5.128  -0.504  1.00  0.00     0.036 C 
BRANCH   6   7
ATOM      7  C   UNL     1       7.706   4.279  -1.491  1.00  0.00    -0.015 C 
ATOM      8  C   UNL     1       8.722   3.343  -0.732  1.00  0.00     0.007 C 
ATOM      9  C   UNL     1       8.507   4.885  -2.579  1.00  0.00     0.007 C 
ENDBRANCH   6   7
ENDBRANCH   5   6
BRANCH   5  10
ATOM     10  C   UNL     1       5.768   4.762   1.708  1.00  0.00     0.168 C 
ATOM     11  O   UNL     1       5.584   3.588   2.237  1.00  0.00    -0.296 OA
BRANCH  10  12
ATOM     12  C   UNL     1       5.827   5.792   2.722  1.00  0.00     0.159 C 
BRANCH  12  13
ATOM     13  N   UNL     1       7.197   5.847   3.301  1.00  0.00    -0.308 NA
ATOM     14  H   UNL     1       7.567   6.790   3.027  1.00  0.00     0.123 HD
BRANCH  13  15
ATOM     15  C   UNL     1       8.065   4.862   2.742  1.00  0.00     0.047 C 
ATOM     16  C   UNL     1       9.366   5.544   2.410  1.00  0.00     0.024 C 
ATOM     17  C   UNL     1       8.332   3.667   3.606  1.00  0.00     0.024 C 
ENDBRANCH  13  15
ENDBRANCH  12  13
ENDBRANCH  10  12
ENDBRANCH   5  10
ENDBRANCH   1   5
BRANCH   2  18
ATOM     18  C   UNL     1       4.660   1.285  -1.079  1.00  0.00     0.105 C 
BRANCH  18  19
ATOM     19  N   UNL     1       5.651   0.695  -1.551  1.00  0.00    -0.253 NA
BRANCH  19  20
ATOM     20  C   UNL     1       6.855   0.239  -1.026  1.00  0.00     0.235 C 
BRANCH  20  21
ATOM     21  O   UNL     1       8.005   0.873  -1.544  1.00  0.00    -0.372 OA
ATOM     22  H   UNL     1       7.649   1.652  -2.065  1.00  0.00     0.213 HD
ENDBRANCH  20  21
BRANCH  20  23
ATOM     23  C   UNL     1       6.974   0.371   0.484  1.00  0.00     0.040 C 
ATOM     24  C   UNL     1       8.254   0.980   0.941  1.00  0.00     0.008 C 
ATOM     25  C   UNL     1       6.738  -0.943   1.195  1.00  0.00     0.008 C 
ATOM     26  C   UNL     1       8.482   0.491   2.382  1.00  0.00     0.004 C 
ATOM     27  C   UNL     1       6.375  -0.708   2.648  1.00  0.00     0.004 C 
ATOM     28  C   UNL     1       7.130   0.525   3.113  1.00  0.00    -0.014 C 
ATOM     29  C   UNL     1       7.412   0.391   4.575  1.00  0.00     0.007 C 
ENDBRANCH  20  23
ENDBRANCH  19  20
ENDBRANCH  18  19
BRANCH  18  30
ATOM     30  C   UNL     1       3.364   0.690  -0.708  1.00  0.00     0.037 C 
ATOM     31  C   UNL     1       2.171   1.198  -1.432  1.00  0.00     0.014 C 
ATOM     32  C   UNL     1       3.424  -0.827  -0.707  1.00  0.00     0.014 C 
ENDBRANCH  18  30
ENDBRANCH   2  18
TORSDOF 13
ENDMDL
MODEL 2
REMARK VINA RESULT:      -0.2      2.159      5.221
REMARK SMILES CC(C)CC(NC(=O)C(=NC(O)C1CCC(C)CC1)C(C)C)C(=O)CNC(C)C
REMARK SMILES IDX 6 1 7 2 8 3 5 5 4 6 2 7 1 8 3 9 23 10 24 11 25 12 26 13
REMARK SMILES IDX 27 15 28 16 29 17 9 18 10 19 11 20 12 21 13 23 14 24 19 25
REMARK SMILES IDX 15 26 18 27 16 28 17 29 20 30 21 31 22 32
REMARK H PARENT 6 4 26 14 12 22
ROOT
ATOM      1  N   UNL     1       8.611   2.167   2.592  1.00  0.00    -0.341 N 
ATOM      2  C   UNL     1       8.633   0.969   1.840  1.00  0.00     0.266 C 
ATOM      3  O   UNL     1       9.218   0.876   0.726  1.00  0.00    -0.268 OA
ATOM      4  H   UNL     1       8.154   2.277   3.525  1.00  0.00     0.164 HD
ENDROOT
BRANCH   1   5
ATOM      5  C   UNL     1       9.313   3.407   2.011  1.00  0.00     0.151 C 
BRANCH   5   6
ATOM      6  C   UNL     1       9.670   4.245   3.161  1.00  0.00     0.036 C 
BRANCH   6   7
ATOM      7  C   UNL     1       8.861   5.373   3.646  1.00  0.00    -0.015 C 
ATOM      8  C   UNL     1       8.523   5.130   5.166  1.00  0.00     0.007 C 
ATOM      9  C   UNL     1       7.554   5.683   3.024  1.00  0.00     0.007 C 
ENDBRANCH   6   7
ENDBRANCH   5   6
BRANCH   5  10
ATOM     10  C   UNL     1       8.388   3.776   0.984  1.00  0.00     0.168 C 
ATOM     11  O   UNL     1       7.164   3.461   1.285  1.00  0.00    -0.296 OA
BRANCH  10  12
ATOM     12  C   UNL     1       8.464   4.412  -0.313  1.00  0.00     0.159 C 
BRANCH  12  13
ATOM     13  N   UNL     1       7.540   5.578  -0.355  1.00  0.00    -0.308 NA
ATOM     14  H   UNL     1       7.323   5.784   0.651  1.00  0.00     0.123 HD
BRANCH  13  15
ATOM     15  C   UNL     1       6.310   5.275  -1.009  1.00  0.00     0.047 C 
ATOM     16  C   UNL     1       6.235   3.779  -1.160  1.00  0.00     0.024 C 
ATOM     17  C   UNL     1       5.071   5.772  -0.326  1.00  0.00     0.024 C 
ENDBRANCH  13  15
ENDBRANCH  12  13
ENDBRANCH  10  12
ENDBRANCH   5  10
ENDBRANCH   1   5
BRANCH   2  18
ATOM     18  C   UNL     1       7.916  -0.179   2.439  1.00  0.00     0.105 C 
BRANCH  18  19
ATOM     19  N   UNL     1       6.675  -0.184   2.326  1.00  0.00    -0.253 NA
BRANCH  19  20
ATOM     20  C   UNL     1       5.738  -1.117   1.896  1.00  0.00     0.235 C 
BRANCH  20  21
ATOM     21  O   UNL     1       4.860  -1.581   2.899  1.00  0.00    -0.372 OA
ATOM     22  H   UNL     1       4.618  -2.510   2.611  1.00  0.00     0.213 HD
ENDBRANCH  20  21
BRANCH  20  23
ATOM     23  C   UNL     1       4.838  -0.634   0.771  1.00  0.00     0.040 C 
ATOM     24  C   UNL     1       5.571  -0.221  -0.458  1.00  0.00     0.008 C 
ATOM     25  C   UNL     1       3.904   0.470   1.217  1.00  0.00     0.008 C 
ATOM     26  C   UNL     1       4.658   0.769  -1.203  1.00  0.00     0.004 C 
ATOM     27  C   UNL     1       2.724   0.587   0.272  1.00  0.00     0.004 C 
ATOM     28  C   UNL     1       3.218   0.237  -1.121  1.00  0.00    -0.014 C 
ATOM     29  C   UNL     1       2.406   0.997  -2.121  1.00  0.00     0.007 C 
ENDBRANCH  20  23
ENDBRANCH  19  20
ENDBRANCH  18  19
BRANCH  18  30
ATOM     30  C   UNL     1       8.748  -1.168   3.147  1.00  0.00     0.037 C 
ATOM     31  C   UNL     1       9.392  -2.213   2.311  1.00  0.00     0.014 C 
ATOM     32  C   UNL     1       9.739  -0.498   4.082  1.00  0.00     0.014 C 
ENDBRANCH  18  30
ENDBRANCH   2  18
TORSDOF 13
ENDMDL
MODEL 3
REMARK VINA RESULT:       0.1      2.009      5.344
REMARK SMILES CC(C)CC(NC(=O)C(=NC(O)C1CCC(C)CC1)C(C)C)C(=O)CNC(C)C
REMARK SMILES IDX 6 1 7 2 8 3 5 5 4 6 2 7 1 8 3 9 23 10 24 11 25 12 26 13
REMARK SMILES IDX 27 15 28 16 29 17 9 18 10 19 11 20 12 21 13 23 14 24 19 25
REMARK SMILES IDX 15 26 18 27 16 28 17 29 20 30 21 31 22 32
REMARK H PARENT 6 4 26 14 12 22
ROOT
ATOM      1  N   UNL     1       8.870   2.503   0.766  1.00  0.00    -0.341 N 
ATOM      2  C   UNL     1       7.805   3.368   0.423  1.00  0.00     0.266 C 
ATOM      3  O   UNL     1       7.439   3.555  -0.771  1.00  0.00    -0.268 OA
ATOM      4  H   UNL     1       9.189   2.308   1.742  1.00  0.00     0.164 HD
ENDROOT
BRANCH   1   5
ATOM      5  C   UNL     1       9.621   1.783  -0.367  1.00  0.00     0.151 C 
BRANCH   5   6
ATOM      6  C   UNL     1       9.400   2.588  -1.574  1.00  0.00     0.036 C 
BRANCH   6   7
ATOM      7  C   UNL     1       9.724   2.144  -2.937  1.00  0.00    -0.015 C 
ATOM      8  C   UNL     1       8.676   2.771  -3.933  1.00  0.00     0.007 C 
ATOM      9  C   UNL     1       9.736   0.702  -3.275  1.00  0.00     0.007 C 
ENDBRANCH   6   7
ENDBRANCH   5   6
BRANCH   5  10
ATOM     10  C   UNL     1       9.156   0.443  -0.181  1.00  0.00     0.168 C 
ATOM     11  O   UNL     1       8.540  -0.017  -1.230  1.00  0.00    -0.296 OA
BRANCH  10  12
ATOM     12  C   UNL     1       9.192  -0.540   0.881  1.00  0.00     0.159 C 
BRANCH  12  13
ATOM     13  N   UNL     1       8.481  -0.011   2.076  1.00  0.00    -0.308 NA
ATOM     14  H   UNL     1       9.031   0.835   2.364  1.00  0.00     0.123 HD
BRANCH  13  15
ATOM     15  C   UNL     1       8.496  -0.928   3.169  1.00  0.00     0.047 C 
ATOM     16  C   UNL     1       7.161  -1.626   3.192  1.00  0.00     0.024 C 
ATOM     17  C   UNL     1       9.594  -1.948   3.146  1.00  0.00     0.024 C 
ENDBRANCH  13  15
ENDBRANCH  12  13
ENDBRANCH  10  12
ENDBRANCH   5  10
ENDBRANCH   1   5
BRANCH   2  18
ATOM     18  C   UNL     1       7.142   4.053   1.555  1.00  0.00     0.105 C 
BRANCH  18  19
ATOM     19  N   UNL     1       5.961   4.409   1.378  1.00  0.00    -0.253 NA
BRANCH  19  20
ATOM     20  C   UNL     1       4.994   4.135   0.418  1.00  0.00     0.235 C 
BRANCH  20  21
ATOM     21  O   UNL     1       5.258   4.673  -0.860  1.00  0.00    -0.372 OA
ATOM     22  H   UNL     1       6.006   5.324  -0.709  1.00  0.00     0.213 HD
ENDBRANCH  20  21
BRANCH  20  23
ATOM     23  C   UNL     1       4.741   2.655   0.183  1.00  0.00     0.040 C 
ATOM     24  C   UNL     1       4.768   2.254  -1.251  1.00  0.00     0.008 C 
ATOM     25  C   UNL     1       3.460   2.181   0.833  1.00  0.00     0.008 C 
ATOM     26  C   UNL     1       3.926   0.971  -1.365  1.00  0.00     0.004 C 
ATOM     27  C   UNL     1       3.477   0.675   1.015  1.00  0.00     0.004 C 
ATOM     28  C   UNL     1       4.250   0.084  -0.152  1.00  0.00    -0.014 C 
ATOM     29  C   UNL     1       3.709  -1.280  -0.442  1.00  0.00     0.007 C 
ENDBRANCH  20  23
ENDBRANCH  19  20
ENDBRANCH  18  19
BRANCH  18  30
ATOM     30  C   UNL     1       7.971   4.284   2.752  1.00  0.00     0.037 C 
ATOM     31  C   UNL     1       8.087   3.151   3.705  1.00  0.00     0.014 C 
ATOM     32  C   UNL     1       9.327   4.864   2.390  1.00  0.00     0.014 C 
ENDBRANCH  18  30
ENDBRANCH   2  18
TORSDOF 13
ENDMDL
MODEL 4
REMARK VINA RESULT:       0.1      2.265      4.963
REMARK SMILES CC(C)CC(NC(=O)C(=NC(O)C1CCC(C)CC1)C(C)C)C(=O)CNC(C)C
REMARK SMILES IDX 6 1 7 2 8 3 5 5 4 6 2 7 1 8 3 9 23 10 24 11 25 12 26 13
REMARK SMILES IDX 27 15 28 16 29 17 9 18 10 19 11 20 12 21 13 23 14 24 19 25
REMARK SMILES IDX 15 26 18 27 16 28 17 29 20 30 21 31 22 32
REMARK H PARENT 6 4 26 14 12 22
ROOT
ATOM      1  N   UNL     1       6.604   3.806   3.183  1.00  0.00    -0.341 N 
ATOM      2  C   UNL     1       5.987   4.681   2.259  1.00  0.00     0.266 C 
ATOM      3  O   UNL     1       6.647   5.395   1.454  1.00  0.00    -0.268 OA
ATOM      4  H   UNL     1       6.092   3.186   3.850  1.00  0.00     0.164 HD
ENDROOT
BRANCH   1   5
ATOM      5  C   UNL     1       8.141   3.744   3.216  1.00  0.00     0.151 C 
BRANCH   5   6
ATOM      6  C   UNL     1       8.574   3.705   1.815  1.00  0.00     0.036 C 
BRANCH   6   7
ATOM      7  C   UNL     1       9.462   4.699   1.195  1.00  0.00    -0.015 C 
ATOM      8  C   UNL     1       9.736   5.847   2.241  1.00  0.00     0.007 C 
ATOM      9  C   UNL     1       9.050   5.413  -0.035  1.00  0.00     0.007 C 
ENDBRANCH   6   7
ENDBRANCH   5   6
BRANCH   5  10
ATOM     10  C   UNL     1       8.342   2.691   4.165  1.00  0.00     0.168 C 
ATOM     11  O   UNL     1       9.011   3.086   5.206  1.00  0.00    -0.296 OA
BRANCH  10  12
ATOM     12  C   UNL     1       7.992   1.291   4.264  1.00  0.00     0.159 C 
BRANCH  12  13
ATOM     13  N   UNL     1       7.188   0.890   3.077  1.00  0.00    -0.308 NA
ATOM     14  H   UNL     1       6.228   0.699   3.455  1.00  0.00     0.123 HD
BRANCH  13  15
ATOM     15  C   UNL     1       7.664  -0.314   2.478  1.00  0.00     0.047 C 
ATOM     16  C   UNL     1       9.101  -0.087   2.088  1.00  0.00     0.024 C 
ATOM     17  C   UNL     1       7.563  -1.545   3.326  1.00  0.00     0.024 C 
ENDBRANCH  13  15
ENDBRANCH  12  13
ENDBRANCH  10  12
ENDBRANCH   5  10
ENDBRANCH   1   5
BRANCH   2  18
ATOM     18  C   UNL     1       4.508   4.717   2.295  1.00  0.00     0.105 C 
BRANCH  18  19
ATOM     19  N   UNL     1       3.912   4.139   1.366  1.00  0.00    -0.253 NA
BRANCH  19  20
ATOM     20  C   UNL     1       4.115   2.957   0.664  1.00  0.00     0.235 C 
BRANCH  20  21
ATOM     21  O   UNL     1       3.025   2.545  -0.132  1.00  0.00    -0.372 OA
ATOM     22  H   UNL     1       2.617   1.783   0.376  1.00  0.00     0.213 HD
ENDBRANCH  20  21
BRANCH  20  23
ATOM     23  C   UNL     1       5.309   2.981  -0.278  1.00  0.00     0.040 C 
ATOM     24  C   UNL     1       4.958   3.279  -1.694  1.00  0.00     0.008 C 
ATOM     25  C   UNL     1       6.128   1.711  -0.199  1.00  0.00     0.008 C 
ATOM     26  C   UNL     1       6.080   2.678  -2.560  1.00  0.00     0.004 C 
ATOM     27  C   UNL     1       7.526   1.942  -0.739  1.00  0.00     0.004 C 
ATOM     28  C   UNL     1       7.419   2.961  -1.860  1.00  0.00    -0.014 C 
ATOM     29  C   UNL     1       8.505   2.693  -2.854  1.00  0.00     0.007 C 
ENDBRANCH  20  23
ENDBRANCH  19  20
ENDBRANCH  18  19
BRANCH  18  30
ATOM     30  C   UNL     1       3.903   5.478   3.403  1.00  0.00     0.037 C 
ATOM     31  C   UNL     1       2.431   5.354   3.565  1.00  0.00     0.014 C 
ATOM     32  C   UNL     1       4.640   5.245   4.710  1.00  0.00     0.014 C 
ENDBRANCH  18  30
ENDBRANCH   2  18
TORSDOF 13
ENDMDL
MODEL 5
REMARK VINA RESULT:       0.6      2.156      5.360
REMARK SMILES CC(C)CC(NC(=O)C(=NC(O)C1CCC(C)CC1)C(C)C)C(=O)CNC(C)C
REMARK SMILES IDX 6 1 7 2 8 3 5 5 4 6 2 7 1 8 3 9 23 10 24 11 25 12 26 13
REMARK SMILES IDX 27 15 28 16 29 17 9 18 10 19 11 20 12 21 13 23 14 24 19 25
REMARK SMILES IDX 15 26 18 27 16 28 17 29 20 30 21 31 22 32
REMARK H PARENT 6 4 26 14 12 22
ROOT
ATOM      1  N   UNL     1       7.262   2.260   1.778  1.00  0.00    -0.341 N 
ATOM      2  C   UNL     1       8.098   1.851   2.843  1.00  0.00     0.266 C 
ATOM      3  O   UNL     1       8.768   2.669   3.533  1.00  0.00    -0.268 OA
ATOM      4  H   UNL     1       6.678   1.616   1.198  1.00  0.00     0.164 HD
ENDROOT
BRANCH   1   5
ATOM      5  C   UNL     1       7.189   3.759   1.440  1.00  0.00     0.151 C 
BRANCH   5   6
ATOM      6  C   UNL     1       5.939   4.247   2.035  1.00  0.00     0.036 C 
BRANCH   6   7
ATOM      7  C   UNL     1       5.866   5.047   3.266  1.00  0.00    -0.015 C 
ATOM      8  C   UNL     1       7.252   5.769   3.478  1.00  0.00     0.007 C 
ATOM      9  C   UNL     1       5.585   4.401   4.568  1.00  0.00     0.007 C 
ENDBRANCH   6   7
ENDBRANCH   5   6
BRANCH   5  10
ATOM     10  C   UNL     1       7.470   3.727   0.038  1.00  0.00     0.168 C 
ATOM     11  O   UNL     1       8.741   3.828  -0.213  1.00  0.00    -0.296 OA
BRANCH  10  12
ATOM     12  C   UNL     1       6.700   3.613  -1.182  1.00  0.00     0.159 C 
BRANCH  12  13
ATOM     13  N   UNL     1       7.271   2.537  -2.036  1.00  0.00    -0.308 NA
ATOM     14  H   UNL     1       7.075   1.647  -1.515  1.00  0.00     0.123 HD
BRANCH  13  15
ATOM     15  C   UNL     1       8.686   2.649  -2.181  1.00  0.00     0.047 C 
ATOM     16  C   UNL     1       8.992   4.081  -2.534  1.00  0.00     0.024 C 
ATOM     17  C   UNL     1       9.495   2.243  -0.986  1.00  0.00     0.024 C 
ENDBRANCH  13  15
ENDBRANCH  12  13
ENDBRANCH  10  12
ENDBRANCH   5  10
ENDBRANCH   1   5
BRANCH   2  18
ATOM     18  C   UNL     1       8.148   0.394   3.101  1.00  0.00     0.105 C 
BRANCH  18  19
ATOM     19  N   UNL     1       7.601  -0.341   2.256  1.00  0.00    -0.253 NA
BRANCH  19  20
ATOM     20  C   UNL     1       6.488  -1.174   2.264  1.00  0.00     0.235 C 
BRANCH  20  21
ATOM     21  O   UNL     1       5.830  -1.273   3.509  1.00  0.00    -0.372 OA
ATOM     22  H   UNL     1       6.315  -2.006   3.991  1.00  0.00     0.213 HD
ENDBRANCH  20  21
BRANCH  20  23
ATOM     23  C   UNL     1       5.404  -0.786   1.271  1.00  0.00     0.040 C 
ATOM     24  C   UNL     1       5.896  -0.603  -0.123  1.00  0.00     0.008 C 
ATOM     25  C   UNL     1       4.629   0.435   1.716  1.00  0.00     0.008 C 
ATOM     26  C   UNL     1       4.898   0.339  -0.820  1.00  0.00     0.004 C 
ATOM     27  C   UNL     1       3.290   0.506   1.006  1.00  0.00     0.004 C 
ATOM     28  C   UNL     1       3.481  -0.069  -0.386  1.00  0.00    -0.014 C 
ATOM     29  C   UNL     1       2.521   0.603  -1.316  1.00  0.00     0.007 C 
ENDBRANCH  20  23
ENDBRANCH  19  20
ENDBRANCH  18  19
BRANCH  18  30
ATOM     30  C   UNL     1       8.797  -0.023   4.356  1.00  0.00     0.037 C 
ATOM     31  C   UNL     1       9.692  -1.205   4.278  1.00  0.00     0.014 C 
ATOM     32  C   UNL     1       9.462   1.148   5.058  1.00  0.00     0.014 C 
ENDBRANCH  18  30
ENDBRANCH   2  18
TORSDOF 13
ENDMDL
MODEL 6
REMARK VINA RESULT:       0.8      2.045      4.457
REMARK SMILES CC(C)CC(NC(=O)C(=NC(O)C1CCC(C)CC1)C(C)C)C(=O)CNC(C)C
REMARK SMILES IDX 6 1 7 2 8 3 5 5 4 6 2 7 1 8 3 9 23 10 24 11 25 12 26 13
REMARK SMILES IDX 27 15 28 16 29 17 9 18 10 19 11 20 12 21 13 23 14 24 19 25
REMARK SMILES IDX 15 26 18 27 16 28 17 29 20 30 21 31 22 32
REMARK H PARENT 6 4 26 14 12 22
ROOT
ATOM      1  N   UNL     1       7.156   2.255   0.717  1.00  0.00    -0.341 N 
ATOM      2  C   UNL     1       8.436   2.117   1.302  1.00  0.00     0.266 C 
ATOM      3  O   UNL     1       9.374   2.933   1.086  1.00  0.00    -0.268 OA
ATOM      4  H   UNL     1       6.351   1.612   0.887  1.00  0.00     0.164 HD
ENDROOT
BRANCH   1   5
ATOM      5  C   UNL     1       6.913   3.437  -0.237  1.00  0.00     0.151 C 
BRANCH   5   6
ATOM      6  C   UNL     1       7.296   2.964  -1.573  1.00  0.00     0.036 C 
BRANCH   6   7
ATOM      7  C   UNL     1       8.684   2.767  -2.015  1.00  0.00    -0.015 C 
ATOM      8  C   UNL     1       9.204   1.396  -1.438  1.00  0.00     0.007 C 
ATOM      9  C   UNL     1       9.736   3.743  -1.648  1.00  0.00     0.007 C 
ENDBRANCH   6   7
ENDBRANCH   5   6
BRANCH   5  10
ATOM     10  C   UNL     1       7.567   4.491   0.477  1.00  0.00     0.168 C 
ATOM     11  O   UNL     1       8.694   4.833  -0.072  1.00  0.00    -0.296 OA
BRANCH  10  12
ATOM     12  C   UNL     1       7.296   5.277   1.660  1.00  0.00     0.159 C 
BRANCH  12  13
ATOM     13  N   UNL     1       7.918   4.627   2.846  1.00  0.00    -0.308 NA
ATOM     14  H   UNL     1       7.974   3.609   2.596  1.00  0.00     0.123 HD
BRANCH  13  15
ATOM     15  C   UNL     1       7.110   4.741   4.016  1.00  0.00     0.047 C 
ATOM     16  C   UNL     1       8.020   5.104   5.160  1.00  0.00     0.024 C 
ATOM     17  C   UNL     1       5.987   5.731   3.936  1.00  0.00     0.024 C 
ENDBRANCH  13  15
ENDBRANCH  12  13
ENDBRANCH  10  12
ENDBRANCH   5  10
ENDBRANCH   1   5
BRANCH   2  18
ATOM     18  C   UNL     1       8.616   0.944   2.188  1.00  0.00     0.105 C 
BRANCH  18  19
ATOM     19  N   UNL     1       7.856  -0.024   1.994  1.00  0.00    -0.253 NA
BRANCH  19  20
ATOM     20  C   UNL     1       6.533  -0.304   2.316  1.00  0.00     0.235 C 
BRANCH  20  21
ATOM     21  O   UNL     1       6.092   0.243   3.540  1.00  0.00    -0.372 OA
ATOM     22  H   UNL     1       5.912   1.207   3.333  1.00  0.00     0.213 HD
ENDBRANCH  20  21
BRANCH  20  23
ATOM     23  C   UNL     1       5.521   0.164   1.283  1.00  0.00     0.040 C 
ATOM     24  C   UNL     1       4.124   0.237   1.792  1.00  0.00     0.008 C 
ATOM     25  C   UNL     1       5.572  -0.661   0.015  1.00  0.00     0.008 C 
ATOM     26  C   UNL     1       3.202   0.108   0.566  1.00  0.00     0.004 C 
ATOM     27  C   UNL     1       4.945   0.095  -1.140  1.00  0.00     0.004 C 
ATOM     28  C   UNL     1       3.815   0.937  -0.575  1.00  0.00    -0.014 C 
ATOM     29  C   UNL     1       2.762   1.092  -1.626  1.00  0.00     0.007 C 
ENDBRANCH  20  23
ENDBRANCH  19  20
ENDBRANCH  18  19
BRANCH  18  30
ATOM     30  C   UNL     1       9.644   1.073   3.236  1.00  0.00     0.037 C 
ATOM     31  C   UNL     1       9.659   2.348   3.997  1.00  0.00     0.014 C 
ATOM     32  C   UNL     1       9.662  -0.137   4.154  1.00  0.00     0.014 C 
ENDBRANCH  18  30
ENDBRANCH   2  18
TORSDOF 13
ENDMDL
MODEL 7
REMARK VINA RESULT:       1.3      1.708      4.558
REMARK SMILES CC(C)CC(NC(=O)C(=NC(O)C1CCC(C)CC1)C(C)C)C(=O)CNC(C)C
REMARK SMILES IDX 6 1 7 2 8 3 5 5 4 6 2 7 1 8 3 9 23 10 24 11 25 12 26 13
REMARK SMILES IDX 27 15 28 16 29 17 9 18 10 19 11 20 12 21 13 23 14 24 19 25
REMARK SMILES IDX 15 26 18 27 16 28 17 29 20 30 21 31 22 32
REMARK H PARENT 6 4 26 14 12 22
ROOT
ATOM      1  N   UNL     1       6.883   1.887  -0.445  1.00  0.00    -0.341 N 
ATOM      2  C   UNL     1       7.542   0.649  -0.257  1.00  0.00     0.266 C 
ATOM      3  O   UNL     1       8.103   0.027  -1.202  1.00  0.00    -0.268 OA
ATOM      4  H   UNL     1       6.425   2.439   0.314  1.00  0.00     0.164 HD
ENDROOT
BRANCH   1   5
ATOM      5  C   UNL     1       6.835   2.481  -1.863  1.00  0.00     0.151 C 
BRANCH   5   6
ATOM      6  C   UNL     1       8.231   2.718  -2.249  1.00  0.00     0.036 C 
BRANCH   6   7
ATOM      7  C   UNL     1       9.056   3.820  -1.734  1.00  0.00    -0.015 C 
ATOM      8  C   UNL     1       8.893   3.879  -0.167  1.00  0.00     0.007 C 
ATOM      9  C   UNL     1       8.817   5.212  -2.181  1.00  0.00     0.007 C 
ENDBRANCH   6   7
ENDBRANCH   5   6
BRANCH   5  10
ATOM     10  C   UNL     1       5.849   3.502  -1.688  1.00  0.00     0.168 C 
ATOM     11  O   UNL     1       4.979   3.520  -2.653  1.00  0.00    -0.296 OA
BRANCH  10  12
ATOM     12  C   UNL     1       5.570   4.530  -0.708  1.00  0.00     0.159 C 
BRANCH  12  13
ATOM     13  N   UNL     1       5.188   3.899   0.585  1.00  0.00    -0.308 NA
ATOM     14  H   UNL     1       4.159   3.712   0.499  1.00  0.00     0.123 HD
BRANCH  13  15
ATOM     15  C   UNL     1       5.378   4.774   1.695  1.00  0.00     0.047 C 
ATOM     16  C   UNL     1       5.613   3.917   2.911  1.00  0.00     0.024 C 
ATOM     17  C   UNL     1       6.494   5.765   1.557  1.00  0.00     0.024 C 
ENDBRANCH  13  15
ENDBRANCH  12  13
ENDBRANCH  10  12
ENDBRANCH   5  10
ENDBRANCH   1   5
BRANCH   2  18
ATOM     18  C   UNL     1       7.529   0.116   1.124  1.00  0.00     0.105 C 
BRANCH  18  19
ATOM     19  N   UNL     1       6.685  -0.766   1.374  1.00  0.00    -0.253 NA
BRANCH  19  20
ATOM     20  C   UNL     1       5.357  -0.756   1.785  1.00  0.00     0.235 C 
BRANCH  20  21
ATOM     21  O   UNL     1       5.124  -0.121   3.023  1.00  0.00    -0.372 OA
ATOM     22  H   UNL     1       4.161   0.156   2.986  1.00  0.00     0.213 HD
ENDBRANCH  20  21
BRANCH  20  23
ATOM     23  C   UNL     1       4.402  -0.089   0.808  1.00  0.00     0.040 C 
ATOM     24  C   UNL     1       3.264   0.618   1.460  1.00  0.00     0.008 C 
ATOM     25  C   UNL     1       3.887  -1.051  -0.239  1.00  0.00     0.008 C 
ATOM     26  C   UNL     1       2.132   0.680   0.419  1.00  0.00     0.004 C 
ATOM     27  C   UNL     1       3.362  -0.298  -1.446  1.00  0.00     0.004 C 
ATOM     28  C   UNL     1       2.762   1.004  -0.945  1.00  0.00    -0.014 C 
ATOM     29  C   UNL     1       1.650   1.403  -1.864  1.00  0.00     0.007 C 
ENDBRANCH  20  23
ENDBRANCH  19  20
ENDBRANCH  18  19
BRANCH  18  30
ATOM     30  C   UNL     1       8.485   0.725   2.065  1.00  0.00     0.037 C 
ATOM     31  C   UNL     1       7.936   1.174   3.370  1.00  0.00     0.014 C 
ATOM     32  C   UNL     1       9.726  -0.134   2.236  1.00  0.00     0.014 C 
ENDBRANCH  18  30
ENDBRANCH   2  18
TORSDOF 13
ENDMDL
MODEL 8
REMARK VINA RESULT:       1.7      1.751      3.678
REMARK SMILES CC(C)CC(NC(=O)C(=NC(O)C1CCC(C)CC1)C(C)C)C(=O)CNC(C)C
REMARK SMILES IDX 6 1 7 2 8 3 5 5 4 6 2 7 1 8 3 9 23 10 24 11 25 12 26 13
REMARK SMILES IDX 27 15 28 16 29 17 9 18 10 19 11 20 12 21 13 23 14 24 19 25
REMARK SMILES IDX 15 26 18 27 16 28 17 29 20 30 21 31 22 32
REMARK H PARENT 6 4 26 14 12 22
ROOT
ATOM      1  N   UNL     1       4.668   2.681   0.436  1.00  0.00    -0.341 N 
ATOM      2  C   UNL     1       5.701   2.224  -0.417  1.00  0.00     0.266 C 
ATOM      3  O   UNL     1       6.486   3.011  -1.015  1.00  0.00    -0.268 OA
ATOM      4  H   UNL     1       4.013   2.061   0.962  1.00  0.00     0.164 HD
ENDROOT
BRANCH   1   5
ATOM      5  C   UNL     1       4.489   4.198   0.617  1.00  0.00     0.151 C 
BRANCH   5   6
ATOM      6  C   UNL     1       4.099   4.719  -0.698  1.00  0.00     0.036 C 
BRANCH   6   7
ATOM      7  C   UNL     1       4.963   4.693  -1.887  1.00  0.00    -0.015 C 
ATOM      8  C   UNL     1       6.042   5.834  -1.748  1.00  0.00     0.007 C 
ATOM      9  C   UNL     1       4.390   4.892  -3.238  1.00  0.00     0.007 C 
ENDBRANCH   6   7
ENDBRANCH   5   6
BRANCH   5  10
ATOM     10  C   UNL     1       5.701   4.527   1.303  1.00  0.00     0.168 C 
ATOM     11  O   UNL     1       6.434   5.366   0.634  1.00  0.00    -0.296 OA
BRANCH  10  12
ATOM     12  C   UNL     1       6.327   4.162   2.554  1.00  0.00     0.159 C 
BRANCH  12  13
ATOM     13  N   UNL     1       7.330   3.088   2.318  1.00  0.00    -0.308 NA
ATOM     14  H   UNL     1       6.765   2.209   2.219  1.00  0.00     0.123 HD
BRANCH  13  15
ATOM     15  C   UNL     1       8.211   2.911   3.427  1.00  0.00     0.047 C 
ATOM     16  C   UNL     1       7.869   1.593   4.070  1.00  0.00     0.024 C 
ATOM     17  C   UNL     1       9.675   2.948   3.106  1.00  0.00     0.024 C 
ENDBRANCH  13  15
ENDBRANCH  12  13
ENDBRANCH  10  12
ENDBRANCH   5  10
ENDBRANCH   1   5
BRANCH   2  18
ATOM     18  C   UNL     1       5.805   0.756  -0.573  1.00  0.00     0.105 C 
BRANCH  18  19
ATOM     19  N   UNL     1       6.930   0.303  -0.859  1.00  0.00    -0.253 NA
BRANCH  19  20
ATOM     20  C   UNL     1       8.236   0.720  -0.629  1.00  0.00     0.235 C 
BRANCH  20  21
ATOM     21  O   UNL     1       9.230  -0.111  -1.188  1.00  0.00    -0.372 OA
ATOM     22  H   UNL     1      10.047   0.468  -1.231  1.00  0.00     0.213 HD
ENDBRANCH  20  21
BRANCH  20  23
ATOM     23  C   UNL     1       8.550   2.116  -1.142  1.00  0.00     0.040 C 
ATOM     24  C   UNL     1       8.802   2.182  -2.608  1.00  0.00     0.008 C 
ATOM     25  C   UNL     1       9.691   2.761  -0.387  1.00  0.00     0.008 C 
ATOM     26  C   UNL     1       9.669   3.431  -2.849  1.00  0.00     0.004 C 
ATOM     27  C   UNL     1       9.663   4.268  -0.558  1.00  0.00     0.004 C 
ATOM     28  C   UNL     1       9.134   4.558  -1.951  1.00  0.00    -0.014 C 
ATOM     29  C   UNL     1       9.740   5.837  -2.436  1.00  0.00     0.007 C 
ENDBRANCH  20  23
ENDBRANCH  19  20
ENDBRANCH  18  19
BRANCH  18  30
ATOM     30  C   UNL     1       4.551  -0.004  -0.422  1.00  0.00     0.037 C 
ATOM     31  C   UNL     1       4.173  -0.390   0.962  1.00  0.00     0.014 C 
ATOM     32  C   UNL     1       3.402   0.658  -1.161  1.00  0.00     0.014 C 
ENDBRANCH  18  30
ENDBRANCH   2  18
TORSDOF 13
ENDMDL
