MODEL 1
REMARK VINA RESULT:       0.2      0.000      0.000
REMARK SMILES Fc1ccc(-c2ccc3[nH]c(-c4ccco4)nc3n2)cc1
REMARK SMILES IDX 6 1 7 2 8 3 9 4 10 5 11 6 17 7 18 8 19 9 5 11 2 12 3 13
REMARK SMILES IDX 21 14 4 15 20 16 1 17 12 18 13 19 16 20 14 21 15 22
REMARK H PARENT 10 10
ROOT
ATOM      1  C   UNL     1       7.806   1.474   2.439  1.00  0.00     0.073 A 
ATOM      2  C   UNL     1       8.348   2.698   2.768  1.00  0.00     0.031 A 
ATOM      3  C   UNL     1       7.862   3.896   2.261  1.00  0.00     0.032 A 
ATOM      4  C   UNL     1       6.790   3.814   1.396  1.00  0.00     0.085 A 
ATOM      5  N   UNL     1       6.094   4.738   0.742  1.00  0.00    -0.334 N 
ATOM      6  C   UNL     1       5.115   4.172  -0.003  1.00  0.00     0.176 A 
ATOM      7  N   UNL     1       5.229   2.842   0.213  1.00  0.00    -0.205 NA
ATOM      8  C   UNL     1       6.243   2.592   1.062  1.00  0.00     0.178 A 
ATOM      9  N   UNL     1       6.775   1.457   1.600  1.00  0.00    -0.227 NA
ATOM     10  H   UNL     1       6.284   5.763   0.804  1.00  0.00     0.168 HD
ENDROOT
BRANCH   1  11
ATOM     11  C   UNL     1       8.301   0.207   2.959  1.00  0.00     0.000 A 
ATOM     12  C   UNL     1       9.240  -2.185   4.109  1.00  0.00     0.123 A 
ATOM     13  C   UNL     1       8.855  -1.108   4.903  1.00  0.00     0.040 A 
ATOM     14  C   UNL     1       9.138  -2.019   2.739  1.00  0.00     0.040 A 
ATOM     15  C   UNL     1       8.389   0.077   4.329  1.00  0.00     0.013 A 
ATOM     16  C   UNL     1       8.679  -0.851   2.160  1.00  0.00     0.013 A 
ATOM     17  F   UNL     1       9.692  -3.335   4.672  1.00  0.00    -0.207 F 
ENDBRANCH   1  11
BRANCH   6  18
ATOM     18  C   UNL     1       4.132   4.835  -0.865  1.00  0.00     0.169 A 
ATOM     19  C   UNL     1       4.231   5.146  -2.209  1.00  0.00     0.054 A 
ATOM     20  O   UNL     1       2.957   5.241  -0.428  1.00  0.00    -0.461 OA
ATOM     21  C   UNL     1       3.025   5.762  -2.515  1.00  0.00     0.043 A 
ATOM     22  C   UNL     1       2.254   5.801  -1.367  1.00  0.00     0.196 A 
ENDBRANCH   6  18
TORSDOF 2
ENDMDL
MODEL 2
REMARK VINA RESULT:       1.3      1.053      1.457
REMARK SMILES Fc1ccc(-c2ccc3[nH]c(-c4ccco4)nc3n2)cc1
REMARK SMILES IDX 6 1 7 2 8 3 9 4 10 5 11 6 17 7 18 8 19 9 5 11 2 12 3 13
REMARK SMILES IDX 21 14 4 15 20 16 1 17 12 18 13 19 16 20 14 21 15 22
REMARK H PARENT 10 10
ROOT
ATOM      1  C   UNL     1       7.957   0.978   3.253  1.00  0.00     0.073 A 
ATOM      2  C   UNL     1       8.267   2.191   3.829  1.00  0.00     0.031 A 
ATOM      3  C   UNL     1       7.785   3.399   3.342  1.00  0.00     0.032 A 
ATOM      4  C   UNL     1       6.965   3.338   2.234  1.00  0.00     0.085 A 
ATOM      5  N   UNL     1       6.345   4.277   1.526  1.00  0.00    -0.334 N 
ATOM      6  C   UNL     1       5.640   3.730   0.507  1.00  0.00     0.176 A 
ATOM      7  N   UNL     1       5.846   2.397   0.608  1.00  0.00    -0.205 NA
ATOM      8  C   UNL     1       6.651   2.128   1.652  1.00  0.00     0.178 A 
ATOM      9  N   UNL     1       7.163   0.981   2.187  1.00  0.00    -0.227 NA
ATOM     10  H   UNL     1       6.401   5.298   1.737  1.00  0.00     0.168 HD
ENDROOT
BRANCH   1  11
ATOM     11  C   UNL     1       8.452  -0.299   3.748  1.00  0.00     0.000 A 
ATOM     12  C   UNL     1       9.325  -2.839   4.594  1.00  0.00     0.123 A 
ATOM     13  C   UNL     1       8.450  -2.700   3.520  1.00  0.00     0.040 A 
ATOM     14  C   UNL     1       9.738  -1.674   5.218  1.00  0.00     0.040 A 
ATOM     15  C   UNL     1       8.019  -1.438   3.103  1.00  0.00     0.013 A 
ATOM     16  C   UNL     1       9.318  -0.421   4.814  1.00  0.00     0.013 A 
ATOM     17  F   UNL     1       9.740  -4.067   4.996  1.00  0.00    -0.207 F 
ENDBRANCH   1  11
BRANCH   6  18
ATOM     18  C   UNL     1       4.822   4.413  -0.500  1.00  0.00     0.169 A 
ATOM     19  C   UNL     1       4.846   5.744  -0.875  1.00  0.00     0.054 A 
ATOM     20  O   UNL     1       3.904   3.794  -1.214  1.00  0.00    -0.461 OA
ATOM     21  C   UNL     1       3.872   5.847  -1.859  1.00  0.00     0.043 A 
ATOM     22  C   UNL     1       3.305   4.598  -2.042  1.00  0.00     0.196 A 
ENDBRANCH   6  18
TORSDOF 2
ENDMDL
MODEL 3
REMARK VINA RESULT:       3.2      3.992      8.123
REMARK SMILES Fc1ccc(-c2ccc3[nH]c(-c4ccco4)nc3n2)cc1
REMARK SMILES IDX 6 1 7 2 8 3 9 4 10 5 11 6 17 7 18 8 19 9 5 11 2 12 3 13
REMARK SMILES IDX 21 14 4 15 20 16 1 17 12 18 13 19 16 20 14 21 15 22
REMARK H PARENT 10 10
ROOT
ATOM      1  C   UNL     1       6.094   2.957   1.561  1.00  0.00     0.073 A 
ATOM      2  C   UNL     1       6.407   3.504   2.787  1.00  0.00     0.031 A 
ATOM      3  C   UNL     1       7.067   2.794   3.781  1.00  0.00     0.032 A 
ATOM      4  C   UNL     1       7.405   1.488   3.489  1.00  0.00     0.085 A 
ATOM      5  N   UNL     1       8.026   0.546   4.191  1.00  0.00    -0.334 N 
ATOM      6  C   UNL     1       8.134  -0.600   3.477  1.00  0.00     0.176 A 
ATOM      7  N   UNL     1       7.550  -0.333   2.286  1.00  0.00    -0.205 NA
ATOM      8  C   UNL     1       7.095   0.934   2.265  1.00  0.00     0.178 A 
ATOM      9  N   UNL     1       6.445   1.694   1.337  1.00  0.00    -0.227 NA
ATOM     10  H   UNL     1       8.380   0.682   5.164  1.00  0.00     0.168 HD
ENDROOT
BRANCH   1  11
ATOM     11  C   UNL     1       5.402   3.685   0.506  1.00  0.00     0.000 A 
ATOM     12  C   UNL     1       3.941   5.100  -1.440  1.00  0.00     0.123 A 
ATOM     13  C   UNL     1       3.377   4.783  -0.207  1.00  0.00     0.040 A 
ATOM     14  C   UNL     1       5.244   4.687  -1.656  1.00  0.00     0.040 A 
ATOM     15  C   UNL     1       4.105   4.080   0.756  1.00  0.00     0.013 A 
ATOM     16  C   UNL     1       5.974   3.991  -0.711  1.00  0.00     0.013 A 
ATOM     17  F   UNL     1       3.229   5.783  -2.373  1.00  0.00    -0.207 F 
ENDBRANCH   1  11
BRANCH   6  18
ATOM     18  C   UNL     1       8.748  -1.868   3.882  1.00  0.00     0.169 A 
ATOM     19  C   UNL     1       8.916  -3.023   3.141  1.00  0.00     0.054 A 
ATOM     20  O   UNL     1       9.246  -2.068   5.085  1.00  0.00    -0.461 OA
ATOM     21  C   UNL     1       9.547  -3.906   4.007  1.00  0.00     0.043 A 
ATOM     22  C   UNL     1       9.737  -3.264   5.218  1.00  0.00     0.196 A 
ENDBRANCH   6  18
TORSDOF 2
ENDMDL
