MODEL 1
REMARK VINA RESULT:      -4.7      0.000      0.000
REMARK SMILES NC(N)=NN=Cc1ccccc1OC(=O)c1cccs1
REMARK SMILES IDX 6 1 5 2 4 3 2 4 1 5 3 6 7 11 8 12 12 13 9 14 11 15 10 16
REMARK SMILES IDX 13 17 14 18 15 19 16 20 17 21 20 22 18 23 19 24
REMARK H PARENT 1 7 1 8 3 9 3 10
ROOT
ATOM      1  C   UNL     1       6.336  -0.838   1.767  1.00  0.00     0.147 C 
ENDROOT
BRANCH   1   2
ATOM      2  N   UNL     1       6.725  -0.532   2.928  1.00  0.00    -0.155 NA
BRANCH   2   3
ATOM      3  N   UNL     1       8.030  -0.610   3.342  1.00  0.00    -0.115 NA
BRANCH   3   4
ATOM      4  C   UNL     1       8.955  -0.630   2.433  1.00  0.00     0.211 C 
ATOM      5  N   UNL     1       9.738   0.547   2.286  1.00  0.00    -0.369 N 
ATOM      6  N   UNL     1       9.189  -1.777   1.609  1.00  0.00    -0.369 N 
ATOM      7  H   UNL     1      10.756   0.548   2.534  1.00  0.00     0.159 HD
ATOM      8  H   UNL     1       9.343   1.447   1.931  1.00  0.00     0.159 HD
ATOM      9  H   UNL     1       9.465  -1.647   0.599  1.00  0.00     0.159 HD
ATOM     10  H   UNL     1       9.086  -2.740   2.011  1.00  0.00     0.159 HD
ENDBRANCH   3   4
ENDBRANCH   2   3
ENDBRANCH   1   2
BRANCH   1  11
ATOM     11  C   UNL     1       5.290  -0.260   0.964  1.00  0.00     0.037 A 
ATOM     12  C   UNL     1       4.009   0.013   1.381  1.00  0.00     0.013 A 
ATOM     13  C   UNL     1       5.561   0.069  -0.374  1.00  0.00     0.140 A 
ATOM     14  C   UNL     1       3.046   0.573   0.551  1.00  0.00     0.001 A 
ATOM     15  C   UNL     1       4.609   0.624  -1.198  1.00  0.00     0.048 A 
ATOM     16  C   UNL     1       3.330   0.887  -0.751  1.00  0.00     0.004 A 
BRANCH  13  17
ATOM     17  O   UNL     1       6.817  -0.154  -0.932  1.00  0.00    -0.422 OA
BRANCH  17  18
ATOM     18  C   UNL     1       7.890   0.700  -0.781  1.00  0.00     0.353 C 
ATOM     19  O   UNL     1       9.084   0.327  -0.816  1.00  0.00    -0.245 OA
BRANCH  18  20
ATOM     20  C   UNL     1       7.623   2.104  -0.571  1.00  0.00     0.113 A 
ATOM     21  C   UNL     1       7.451   3.124  -1.508  1.00  0.00     0.027 A 
ATOM     22  S   UNL     1       7.442   2.903   0.980  1.00  0.00    -0.137 S 
ATOM     23  C   UNL     1       7.213   4.348  -1.060  1.00  0.00     0.013 A 
ATOM     24  C   UNL     1       7.147   4.556   0.303  1.00  0.00     0.066 A 
ENDBRANCH  18  20
ENDBRANCH  17  18
ENDBRANCH  13  17
ENDBRANCH   1  11
TORSDOF 7
ENDMDL
MODEL 2
REMARK VINA RESULT:      -4.4      2.676      4.106
REMARK SMILES NC(N)=NN=Cc1ccccc1OC(=O)c1cccs1
REMARK SMILES IDX 6 1 5 2 4 3 2 4 1 5 3 6 7 11 8 12 12 13 9 14 11 15 10 16
REMARK SMILES IDX 13 17 14 18 15 19 16 20 17 21 20 22 18 23 19 24
REMARK H PARENT 1 7 1 8 3 9 3 10
ROOT
ATOM      1  C   UNL     1       4.772   2.146   0.309  1.00  0.00     0.147 C 
ENDROOT
BRANCH   1   2
ATOM      2  N   UNL     1       3.951   1.201   0.473  1.00  0.00    -0.155 NA
BRANCH   2   3
ATOM      3  N   UNL     1       4.184   0.120   1.285  1.00  0.00    -0.115 NA
BRANCH   3   4
ATOM      4  C   UNL     1       5.272  -0.559   1.096  1.00  0.00     0.211 C 
ATOM      5  N   UNL     1       5.449  -1.147  -0.186  1.00  0.00    -0.369 N 
ATOM      6  N   UNL     1       6.259  -0.717   2.120  1.00  0.00    -0.369 N 
ATOM      7  H   UNL     1       6.204  -0.811  -0.830  1.00  0.00     0.159 HD
ATOM      8  H   UNL     1       4.846  -1.924  -0.538  1.00  0.00     0.159 HD
ATOM      9  H   UNL     1       6.780  -1.631   2.207  1.00  0.00     0.159 HD
ATOM     10  H   UNL     1       6.461   0.073   2.779  1.00  0.00     0.159 HD
ENDBRANCH   3   4
ENDBRANCH   2   3
ENDBRANCH   1   2
BRANCH   1  11
ATOM     11  C   UNL     1       4.956   3.349   1.077  1.00  0.00     0.037 A 
ATOM     12  C   UNL     1       4.224   4.506   0.956  1.00  0.00     0.013 A 
ATOM     13  C   UNL     1       5.966   3.387   2.052  1.00  0.00     0.140 A 
ATOM     14  C   UNL     1       4.455   5.635   1.732  1.00  0.00     0.001 A 
ATOM     15  C   UNL     1       6.198   4.503   2.822  1.00  0.00     0.048 A 
ATOM     16  C   UNL     1       5.446   5.651   2.677  1.00  0.00     0.004 A 
BRANCH  13  17
ATOM     17  O   UNL     1       6.787   2.286   2.284  1.00  0.00    -0.422 OA
BRANCH  17  18
ATOM     18  C   UNL     1       8.109   2.216   1.898  1.00  0.00     0.353 C 
ATOM     19  O   UNL     1       9.069   2.252   2.700  1.00  0.00    -0.245 OA
BRANCH  18  20
ATOM     20  C   UNL     1       8.406   2.094   0.489  1.00  0.00     0.113 A 
ATOM     21  C   UNL     1       8.474   0.949  -0.307  1.00  0.00     0.027 A 
ATOM     22  S   UNL     1       8.768   3.411  -0.611  1.00  0.00    -0.137 S 
ATOM     23  C   UNL     1       8.769   1.099  -1.589  1.00  0.00     0.013 A 
ATOM     24  C   UNL     1       8.993   2.371  -2.077  1.00  0.00     0.066 A 
ENDBRANCH  18  20
ENDBRANCH  17  18
ENDBRANCH  13  17
ENDBRANCH   1  11
TORSDOF 7
ENDMDL
MODEL 3
REMARK VINA RESULT:      -4.3      1.901      2.344
REMARK SMILES NC(N)=NN=Cc1ccccc1OC(=O)c1cccs1
REMARK SMILES IDX 6 1 5 2 4 3 2 4 1 5 3 6 7 11 8 12 12 13 9 14 11 15 10 16
REMARK SMILES IDX 13 17 14 18 15 19 16 20 17 21 20 22 18 23 19 24
REMARK H PARENT 1 7 1 8 3 9 3 10
ROOT
ATOM      1  C   UNL     1       6.156   0.592   2.451  1.00  0.00     0.147 C 
ENDROOT
BRANCH   1   2
ATOM      2  N   UNL     1       7.375   0.360   2.685  1.00  0.00    -0.155 NA
BRANCH   2   3
ATOM      3  N   UNL     1       8.178  -0.399   1.873  1.00  0.00    -0.115 NA
BRANCH   3   4
ATOM      4  C   UNL     1       8.877  -1.344   2.421  1.00  0.00     0.211 C 
ATOM      5  N   UNL     1       9.736  -2.087   1.567  1.00  0.00    -0.369 N 
ATOM      6  N   UNL     1       8.799  -1.636   3.820  1.00  0.00    -0.369 N 
ATOM      7  H   UNL     1      10.777  -2.018   1.663  1.00  0.00     0.159 HD
ATOM      8  H   UNL     1       9.377  -2.723   0.819  1.00  0.00     0.159 HD
ATOM      9  H   UNL     1       8.864  -2.636   4.150  1.00  0.00     0.159 HD
ATOM     10  H   UNL     1       8.678  -0.857   4.512  1.00  0.00     0.159 HD
ENDBRANCH   3   4
ENDBRANCH   2   3
ENDBRANCH   1   2
BRANCH   1  11
ATOM     11  C   UNL     1       5.478   0.770   1.194  1.00  0.00     0.037 A 
ATOM     12  C   UNL     1       4.602  -0.116   0.616  1.00  0.00     0.013 A 
ATOM     13  C   UNL     1       5.706   1.945   0.459  1.00  0.00     0.140 A 
ATOM     14  C   UNL     1       3.980   0.120  -0.604  1.00  0.00     0.001 A 
ATOM     15  C   UNL     1       5.092   2.181  -0.749  1.00  0.00     0.048 A 
ATOM     16  C   UNL     1       4.215   1.272  -1.306  1.00  0.00     0.004 A 
BRANCH  13  17
ATOM     17  O   UNL     1       6.571   2.932   0.924  1.00  0.00    -0.422 OA
BRANCH  17  18
ATOM     18  C   UNL     1       7.916   2.981   0.622  1.00  0.00     0.353 C 
ATOM     19  O   UNL     1       8.805   3.258   1.458  1.00  0.00    -0.245 OA
BRANCH  18  20
ATOM     20  C   UNL     1       8.325   2.695  -0.734  1.00  0.00     0.113 A 
ATOM     21  C   UNL     1       8.389   3.545  -1.839  1.00  0.00     0.027 A 
ATOM     22  S   UNL     1       8.864   1.143  -1.348  1.00  0.00    -0.137 S 
ATOM     23  C   UNL     1       8.802   3.040  -2.992  1.00  0.00     0.013 A 
ATOM     24  C   UNL     1       9.148   1.704  -3.046  1.00  0.00     0.066 A 
ENDBRANCH  18  20
ENDBRANCH  17  18
ENDBRANCH  13  17
ENDBRANCH   1  11
TORSDOF 7
ENDMDL
MODEL 4
REMARK VINA RESULT:      -4.3      1.918      2.389
REMARK SMILES NC(N)=NN=Cc1ccccc1OC(=O)c1cccs1
REMARK SMILES IDX 6 1 5 2 4 3 2 4 1 5 3 6 7 11 8 12 12 13 9 14 11 15 10 16
REMARK SMILES IDX 13 17 14 18 15 19 16 20 17 21 20 22 18 23 19 24
REMARK H PARENT 1 7 1 8 3 9 3 10
ROOT
ATOM      1  C   UNL     1       6.237  -1.114   1.669  1.00  0.00     0.147 C 
ENDROOT
BRANCH   1   2
ATOM      2  N   UNL     1       7.240  -0.855   2.391  1.00  0.00    -0.155 NA
BRANCH   2   3
ATOM      3  N   UNL     1       7.178  -0.128   3.552  1.00  0.00    -0.115 NA
BRANCH   3   4
ATOM      4  C   UNL     1       7.746   1.037   3.570  1.00  0.00     0.211 C 
ATOM      5  N   UNL     1       6.914   2.163   3.323  1.00  0.00    -0.369 N 
ATOM      6  N   UNL     1       9.145   1.198   3.826  1.00  0.00    -0.369 N 
ATOM      7  H   UNL     1       6.719   2.861   4.081  1.00  0.00     0.159 HD
ATOM      8  H   UNL     1       6.468   2.343   2.396  1.00  0.00     0.159 HD
ATOM      9  H   UNL     1       9.686   1.947   3.316  1.00  0.00     0.159 HD
ATOM     10  H   UNL     1       9.626   0.574   4.517  1.00  0.00     0.159 HD
ENDBRANCH   3   4
ENDBRANCH   2   3
ENDBRANCH   1   2
BRANCH   1  11
ATOM     11  C   UNL     1       5.520  -0.268   0.752  1.00  0.00     0.037 A 
ATOM     12  C   UNL     1       4.160  -0.253   0.559  1.00  0.00     0.013 A 
ATOM     13  C   UNL     1       6.241   0.643  -0.040  1.00  0.00     0.140 A 
ATOM     14  C   UNL     1       3.531   0.593  -0.346  1.00  0.00     0.001 A 
ATOM     15  C   UNL     1       5.621   1.481  -0.937  1.00  0.00     0.048 A 
ATOM     16  C   UNL     1       4.251   1.473  -1.109  1.00  0.00     0.004 A 
BRANCH  13  17
ATOM     17  O   UNL     1       7.627   0.737   0.049  1.00  0.00    -0.422 OA
BRANCH  17  18
ATOM     18  C   UNL     1       8.330   1.914  -0.098  1.00  0.00     0.353 C 
ATOM     19  O   UNL     1       8.592   2.689   0.850  1.00  0.00    -0.245 OA
BRANCH  18  20
ATOM     20  C   UNL     1       8.793   2.276  -1.418  1.00  0.00     0.113 A 
ATOM     21  C   UNL     1       9.402   1.484  -2.392  1.00  0.00     0.027 A 
ATOM     22  S   UNL     1       8.696   3.868  -2.149  1.00  0.00    -0.137 S 
ATOM     23  C   UNL     1       9.739   2.056  -3.539  1.00  0.00     0.013 A 
ATOM     24  C   UNL     1       9.473   3.399  -3.716  1.00  0.00     0.066 A 
ENDBRANCH  18  20
ENDBRANCH  17  18
ENDBRANCH  13  17
ENDBRANCH   1  11
TORSDOF 7
ENDMDL
MODEL 5
REMARK VINA RESULT:      -4.3      2.621      3.354
REMARK SMILES NC(N)=NN=Cc1ccccc1OC(=O)c1cccs1
REMARK SMILES IDX 6 1 5 2 4 3 2 4 1 5 3 6 7 11 8 12 12 13 9 14 11 15 10 16
REMARK SMILES IDX 13 17 14 18 15 19 16 20 17 21 20 22 18 23 19 24
REMARK H PARENT 1 7 1 8 3 9 3 10
ROOT
ATOM      1  C   UNL     1       6.045   3.001   1.560  1.00  0.00     0.147 C 
ENDROOT
BRANCH   1   2
ATOM      2  N   UNL     1       5.975   3.475   2.729  1.00  0.00    -0.155 NA
BRANCH   2   3
ATOM      3  N   UNL     1       6.943   3.297   3.684  1.00  0.00    -0.115 NA
BRANCH   3   4
ATOM      4  C   UNL     1       7.954   4.109   3.683  1.00  0.00     0.211 C 
ATOM      5  N   UNL     1       9.249   3.525   3.748  1.00  0.00    -0.369 N 
ATOM      6  N   UNL     1       7.790   5.529   3.619  1.00  0.00    -0.369 N 
ATOM      7  H   UNL     1       9.906   3.588   2.934  1.00  0.00     0.159 HD
ATOM      8  H   UNL     1       9.597   3.017   4.592  1.00  0.00     0.159 HD
ATOM      9  H   UNL     1       8.446   6.156   4.159  1.00  0.00     0.159 HD
ATOM     10  H   UNL     1       7.021   5.942   3.038  1.00  0.00     0.159 HD
ENDBRANCH   3   4
ENDBRANCH   2   3
ENDBRANCH   1   2
BRANCH   1  11
ATOM     11  C   UNL     1       5.392   1.850   0.994  1.00  0.00     0.037 A 
ATOM     12  C   UNL     1       4.196   1.851   0.317  1.00  0.00     0.013 A 
ATOM     13  C   UNL     1       6.000   0.591   1.122  1.00  0.00     0.140 A 
ATOM     14  C   UNL     1       3.621   0.700  -0.206  1.00  0.00     0.001 A 
ATOM     15  C   UNL     1       5.433  -0.551   0.605  1.00  0.00     0.048 A 
ATOM     16  C   UNL     1       4.230  -0.519  -0.070  1.00  0.00     0.004 A 
BRANCH  13  17
ATOM     17  O   UNL     1       7.216   0.440   1.785  1.00  0.00    -0.422 OA
BRANCH  17  18
ATOM     18  C   UNL     1       8.407   0.148   1.153  1.00  0.00     0.353 C 
ATOM     19  O   UNL     1       9.157  -0.796   1.489  1.00  0.00    -0.245 OA
BRANCH  18  20
ATOM     20  C   UNL     1       8.812   0.975   0.040  1.00  0.00     0.113 A 
ATOM     21  C   UNL     1       8.647   0.763  -1.330  1.00  0.00     0.027 A 
ATOM     22  S   UNL     1       9.647   2.515   0.144  1.00  0.00    -0.137 S 
ATOM     23  C   UNL     1       9.113   1.681  -2.163  1.00  0.00     0.013 A 
ATOM     24  C   UNL     1       9.735   2.798  -1.642  1.00  0.00     0.066 A 
ENDBRANCH  18  20
ENDBRANCH  17  18
ENDBRANCH  13  17
ENDBRANCH   1  11
TORSDOF 7
ENDMDL
MODEL 6
REMARK VINA RESULT:      -4.2      1.748      2.064
REMARK SMILES NC(N)=NN=Cc1ccccc1OC(=O)c1cccs1
REMARK SMILES IDX 6 1 5 2 4 3 2 4 1 5 3 6 7 11 8 12 12 13 9 14 11 15 10 16
REMARK SMILES IDX 13 17 14 18 15 19 16 20 17 21 20 22 18 23 19 24
REMARK H PARENT 1 7 1 8 3 9 3 10
ROOT
ATOM      1  C   UNL     1       6.771   0.195   2.567  1.00  0.00     0.147 C 
ENDROOT
BRANCH   1   2
ATOM      2  N   UNL     1       6.563   0.266   3.810  1.00  0.00    -0.155 NA
BRANCH   2   3
ATOM      3  N   UNL     1       7.445   0.823   4.701  1.00  0.00    -0.115 NA
BRANCH   3   4
ATOM      4  C   UNL     1       8.045   1.919   4.357  1.00  0.00     0.211 C 
ATOM      5  N   UNL     1       7.236   3.082   4.227  1.00  0.00    -0.369 N 
ATOM      6  N   UNL     1       9.455   1.974   4.117  1.00  0.00    -0.369 N 
ATOM      7  H   UNL     1       7.342   3.885   4.892  1.00  0.00     0.159 HD
ATOM      8  H   UNL     1       6.515   3.186   3.479  1.00  0.00     0.159 HD
ATOM      9  H   UNL     1       9.831   2.596   3.352  1.00  0.00     0.159 HD
ATOM     10  H   UNL     1      10.108   1.397   4.701  1.00  0.00     0.159 HD
ENDBRANCH   3   4
ENDBRANCH   2   3
ENDBRANCH   1   2
BRANCH   1  11
ATOM     11  C   UNL     1       5.835   0.223   1.474  1.00  0.00     0.037 A 
ATOM     12  C   UNL     1       4.466   0.186   1.581  1.00  0.00     0.013 A 
ATOM     13  C   UNL     1       6.325   0.295   0.159  1.00  0.00     0.140 A 
ATOM     14  C   UNL     1       3.618   0.216   0.481  1.00  0.00     0.001 A 
ATOM     15  C   UNL     1       5.488   0.325  -0.932  1.00  0.00     0.048 A 
ATOM     16  C   UNL     1       4.116   0.286  -0.793  1.00  0.00     0.004 A 
BRANCH  13  17
ATOM     17  O   UNL     1       7.693   0.338  -0.100  1.00  0.00    -0.422 OA
BRANCH  17  18
ATOM     18  C   UNL     1       8.310   1.344  -0.814  1.00  0.00     0.353 C 
ATOM     19  O   UNL     1       8.928   1.155  -1.885  1.00  0.00    -0.245 OA
BRANCH  18  20
ATOM     20  C   UNL     1       8.239   2.692  -0.299  1.00  0.00     0.113 A 
ATOM     21  C   UNL     1       8.815   3.233   0.852  1.00  0.00     0.027 A 
ATOM     22  S   UNL     1       7.377   4.035  -1.027  1.00  0.00    -0.137 S 
ATOM     23  C   UNL     1       8.601   4.514   1.112  1.00  0.00     0.013 A 
ATOM     24  C   UNL     1       7.825   5.250   0.238  1.00  0.00     0.066 A 
ENDBRANCH  18  20
ENDBRANCH  17  18
ENDBRANCH  13  17
ENDBRANCH   1  11
TORSDOF 7
ENDMDL
MODEL 7
REMARK VINA RESULT:      -4.2      2.277      2.871
REMARK SMILES NC(N)=NN=Cc1ccccc1OC(=O)c1cccs1
REMARK SMILES IDX 6 1 5 2 4 3 2 4 1 5 3 6 7 11 8 12 12 13 9 14 11 15 10 16
REMARK SMILES IDX 13 17 14 18 15 19 16 20 17 21 20 22 18 23 19 24
REMARK H PARENT 1 7 1 8 3 9 3 10
ROOT
ATOM      1  C   UNL     1       7.089   0.943   1.461  1.00  0.00     0.147 C 
ENDROOT
BRANCH   1   2
ATOM      2  N   UNL     1       7.916   0.037   1.762  1.00  0.00    -0.155 NA
BRANCH   2   3
ATOM      3  N   UNL     1       8.061  -0.474   3.026  1.00  0.00    -0.115 NA
BRANCH   3   4
ATOM      4  C   UNL     1       7.119  -0.243   3.887  1.00  0.00     0.211 C 
ATOM      5  N   UNL     1       7.299   0.869   4.755  1.00  0.00    -0.369 N 
ATOM      6  N   UNL     1       5.946  -1.059   3.971  1.00  0.00    -0.369 N 
ATOM      7  H   UNL     1       6.680   1.711   4.682  1.00  0.00     0.159 HD
ATOM      8  H   UNL     1       8.042   0.897   5.489  1.00  0.00     0.159 HD
ATOM      9  H   UNL     1       5.515  -1.258   4.913  1.00  0.00     0.159 HD
ATOM     10  H   UNL     1       5.520  -1.454   3.099  1.00  0.00     0.159 HD
ENDBRANCH   3   4
ENDBRANCH   2   3
ENDBRANCH   1   2
BRANCH   1  11
ATOM     11  C   UNL     1       5.907   0.874   0.643  1.00  0.00     0.037 A 
ATOM     12  C   UNL     1       4.947  -0.108   0.690  1.00  0.00     0.013 A 
ATOM     13  C   UNL     1       5.675   1.884  -0.306  1.00  0.00     0.140 A 
ATOM     14  C   UNL     1       3.826  -0.113  -0.132  1.00  0.00     0.001 A 
ATOM     15  C   UNL     1       4.567   1.881  -1.121  1.00  0.00     0.048 A 
ATOM     16  C   UNL     1       3.619   0.880  -1.050  1.00  0.00     0.004 A 
BRANCH  13  17
ATOM     17  O   UNL     1       6.566   2.942  -0.465  1.00  0.00    -0.422 OA
BRANCH  17  18
ATOM     18  C   UNL     1       6.951   3.786   0.556  1.00  0.00     0.353 C 
ATOM     19  O   UNL     1       8.138   3.937   0.921  1.00  0.00    -0.245 OA
BRANCH  18  20
ATOM     20  C   UNL     1       5.928   4.539   1.245  1.00  0.00     0.113 A 
ATOM     21  C   UNL     1       4.752   5.100   0.745  1.00  0.00     0.027 A 
ATOM     22  S   UNL     1       5.915   4.948   2.950  1.00  0.00    -0.137 S 
ATOM     23  C   UNL     1       3.966   5.753   1.588  1.00  0.00     0.013 A 
ATOM     24  C   UNL     1       4.343   5.847   2.913  1.00  0.00     0.066 A 
ENDBRANCH  18  20
ENDBRANCH  17  18
ENDBRANCH  13  17
ENDBRANCH   1  11
TORSDOF 7
ENDMDL
MODEL 8
REMARK VINA RESULT:      -4.1      2.996      4.430
REMARK SMILES NC(N)=NN=Cc1ccccc1OC(=O)c1cccs1
REMARK SMILES IDX 6 1 5 2 4 3 2 4 1 5 3 6 7 11 8 12 12 13 9 14 11 15 10 16
REMARK SMILES IDX 13 17 14 18 15 19 16 20 17 21 20 22 18 23 19 24
REMARK H PARENT 1 7 1 8 3 9 3 10
ROOT
ATOM      1  C   UNL     1       5.899   1.995  -0.626  1.00  0.00     0.147 C 
ENDROOT
BRANCH   1   2
ATOM      2  N   UNL     1       7.133   1.761  -0.760  1.00  0.00    -0.155 NA
BRANCH   2   3
ATOM      3  N   UNL     1       7.687   0.510  -0.667  1.00  0.00    -0.115 NA
BRANCH   3   4
ATOM      4  C   UNL     1       8.871   0.408  -0.150  1.00  0.00     0.211 C 
ATOM      5  N   UNL     1       9.673   1.582  -0.139  1.00  0.00    -0.369 N 
ATOM      6  N   UNL     1       9.363  -0.824   0.389  1.00  0.00    -0.369 N 
ATOM      7  H   UNL     1       9.924   2.050   0.764  1.00  0.00     0.159 HD
ATOM      8  H   UNL     1      10.040   2.022  -1.012  1.00  0.00     0.159 HD
ATOM      9  H   UNL     1      10.381  -1.076   0.271  1.00  0.00     0.159 HD
ATOM     10  H   UNL     1       8.713  -1.469   0.898  1.00  0.00     0.159 HD
ENDBRANCH   3   4
ENDBRANCH   2   3
ENDBRANCH   1   2
BRANCH   1  11
ATOM     11  C   UNL     1       5.213   3.250  -0.459  1.00  0.00     0.037 A 
ATOM     12  C   UNL     1       4.700   4.031  -1.467  1.00  0.00     0.013 A 
ATOM     13  C   UNL     1       5.030   3.759   0.837  1.00  0.00     0.140 A 
ATOM     14  C   UNL     1       4.047   5.235  -1.235  1.00  0.00     0.001 A 
ATOM     15  C   UNL     1       4.384   4.951   1.070  1.00  0.00     0.048 A 
ATOM     16  C   UNL     1       3.879   5.714   0.036  1.00  0.00     0.004 A 
BRANCH  13  17
ATOM     17  O   UNL     1       5.500   3.074   1.955  1.00  0.00    -0.422 OA
BRANCH  17  18
ATOM     18  C   UNL     1       6.783   3.192   2.448  1.00  0.00     0.353 C 
ATOM     19  O   UNL     1       7.418   4.270   2.477  1.00  0.00    -0.245 OA
BRANCH  18  20
ATOM     20  C   UNL     1       7.432   2.007   2.960  1.00  0.00     0.113 A 
ATOM     21  C   UNL     1       6.957   0.697   3.034  1.00  0.00     0.027 A 
ATOM     22  S   UNL     1       9.046   1.924   3.643  1.00  0.00    -0.137 S 
ATOM     23  C   UNL     1       7.752  -0.226   3.553  1.00  0.00     0.013 A 
ATOM     24  C   UNL     1       9.007   0.148   3.993  1.00  0.00     0.066 A 
ENDBRANCH  18  20
ENDBRANCH  17  18
ENDBRANCH  13  17
ENDBRANCH   1  11
TORSDOF 7
ENDMDL
MODEL 9
REMARK VINA RESULT:      -4.0      2.826      4.213
REMARK SMILES NC(N)=NN=Cc1ccccc1OC(=O)c1cccs1
REMARK SMILES IDX 6 1 5 2 4 3 2 4 1 5 3 6 7 11 8 12 12 13 9 14 11 15 10 16
REMARK SMILES IDX 13 17 14 18 15 19 16 20 17 21 20 22 18 23 19 24
REMARK H PARENT 1 7 1 8 3 9 3 10
ROOT
ATOM      1  C   UNL     1       4.655   2.024   0.917  1.00  0.00     0.147 C 
ENDROOT
BRANCH   1   2
ATOM      2  N   UNL     1       3.825   1.190   0.458  1.00  0.00    -0.155 NA
BRANCH   2   3
ATOM      3  N   UNL     1       4.094  -0.145   0.297  1.00  0.00    -0.115 NA
BRANCH   3   4
ATOM      4  C   UNL     1       5.335  -0.508   0.206  1.00  0.00     0.211 C 
ATOM      5  N   UNL     1       5.986  -0.271  -1.036  1.00  0.00    -0.369 N 
ATOM      6  N   UNL     1       6.032  -1.120   1.296  1.00  0.00    -0.369 N 
ATOM      7  H   UNL     1       6.762   0.429  -1.108  1.00  0.00     0.159 HD
ATOM      8  H   UNL     1       5.726  -0.772  -1.914  1.00  0.00     0.159 HD
ATOM      9  H   UNL     1       6.739  -1.880   1.104  1.00  0.00     0.159 HD
ATOM     10  H   UNL     1       5.839  -0.813   2.280  1.00  0.00     0.159 HD
ENDBRANCH   3   4
ENDBRANCH   2   3
ENDBRANCH   1   2
BRANCH   1  11
ATOM     11  C   UNL     1       5.170   3.231   0.326  1.00  0.00     0.037 A 
ATOM     12  C   UNL     1       4.455   4.379   0.080  1.00  0.00     0.013 A 
ATOM     13  C   UNL     1       6.522   3.283  -0.050  1.00  0.00     0.140 A 
ATOM     14  C   UNL     1       5.016   5.512  -0.495  1.00  0.00     0.001 A 
ATOM     15  C   UNL     1       7.080   4.403  -0.619  1.00  0.00     0.048 A 
ATOM     16  C   UNL     1       6.337   5.542  -0.855  1.00  0.00     0.004 A 
BRANCH  13  17
ATOM     17  O   UNL     1       7.366   2.191   0.140  1.00  0.00    -0.422 OA
BRANCH  17  18
ATOM     18  C   UNL     1       8.502   2.222   0.921  1.00  0.00     0.353 C 
ATOM     19  O   UNL     1       9.664   2.148   0.460  1.00  0.00    -0.245 OA
BRANCH  18  20
ATOM     20  C   UNL     1       8.347   2.349   2.352  1.00  0.00     0.113 A 
ATOM     21  C   UNL     1       8.320   3.499   3.143  1.00  0.00     0.027 A 
ATOM     22  S   UNL     1       8.144   1.032   3.492  1.00  0.00    -0.137 S 
ATOM     23  C   UNL     1       8.163   3.352   4.450  1.00  0.00     0.013 A 
ATOM     24  C   UNL     1       8.035   2.078   4.966  1.00  0.00     0.066 A 
ENDBRANCH  18  20
ENDBRANCH  17  18
ENDBRANCH  13  17
ENDBRANCH   1  11
TORSDOF 7
ENDMDL
