MODEL 1
REMARK VINA RESULT:      -4.0      0.000      0.000
REMARK SMILES CC(C)C(=O)Nc1ccc(C(=O)O)cc1
REMARK SMILES IDX 7 1 8 2 9 3 10 4 14 5 15 6 6 7 4 8 5 9 2 11 1 12 3 13 11 14
REMARK SMILES IDX 12 15 13 16
REMARK H PARENT 6 10 13 17
ROOT
ATOM      1  C   UNL     1       6.936   1.649   0.097  1.00  0.00     0.041 A 
ATOM      2  C   UNL     1       6.628   0.301   0.141  1.00  0.00     0.027 A 
ATOM      3  C   UNL     1       6.443  -0.317   1.380  1.00  0.00     0.018 A 
ATOM      4  C   UNL     1       6.574   0.443   2.525  1.00  0.00     0.060 A 
ATOM      5  C   UNL     1       6.882   1.788   2.477  1.00  0.00     0.018 A 
ATOM      6  C   UNL     1       7.071   2.419   1.242  1.00  0.00     0.027 A 
ENDROOT
BRANCH   1   7
ATOM      7  N   UNL     1       7.113   2.218  -1.210  1.00  0.00    -0.326 N 
ATOM      8  C   UNL     1       8.446   2.370  -1.663  1.00  0.00     0.226 C 
ATOM      9  O   UNL     1       9.361   1.994  -0.878  1.00  0.00    -0.274 OA
ATOM     10  H   UNL     1       6.329   2.507  -1.807  1.00  0.00     0.169 HD
BRANCH   8  11
ATOM     11  C   UNL     1       8.784   2.936  -2.977  1.00  0.00     0.072 C 
ATOM     12  C   UNL     1       9.606   2.043  -3.855  1.00  0.00     0.018 C 
ATOM     13  C   UNL     1       9.441   4.271  -2.836  1.00  0.00     0.018 C 
ENDBRANCH   8  11
ENDBRANCH   1   7
BRANCH   4  14
ATOM     14  C   UNL     1       6.392  -0.144   3.858  1.00  0.00     0.335 C 
ATOM     15  O   UNL     1       6.933   0.317   4.889  1.00  0.00    -0.246 OA
BRANCH  14  16
ATOM     16  O   UNL     1       5.587  -1.272   4.030  1.00  0.00    -0.478 OA
ATOM     17  H   UNL     1       4.563  -1.209   3.935  1.00  0.00     0.297 HD
ENDBRANCH  14  16
ENDBRANCH   4  14
TORSDOF 4
ENDMDL
MODEL 2
REMARK VINA RESULT:      -3.9      3.233      4.005
REMARK SMILES CC(C)C(=O)Nc1ccc(C(=O)O)cc1
REMARK SMILES IDX 7 1 8 2 9 3 10 4 14 5 15 6 6 7 4 8 5 9 2 11 1 12 3 13 11 14
REMARK SMILES IDX 12 15 13 16
REMARK H PARENT 6 10 13 17
ROOT
ATOM      1  C   UNL     1       6.432   1.199   1.343  1.00  0.00     0.041 A 
ATOM      2  C   UNL     1       7.792   1.432   1.236  1.00  0.00     0.027 A 
ATOM      3  C   UNL     1       8.684   0.588   1.900  1.00  0.00     0.018 A 
ATOM      4  C   UNL     1       8.176  -0.458   2.644  1.00  0.00     0.060 A 
ATOM      5  C   UNL     1       6.818  -0.688   2.749  1.00  0.00     0.018 A 
ATOM      6  C   UNL     1       5.914   0.152   2.089  1.00  0.00     0.027 A 
ENDROOT
BRANCH   1   7
ATOM      7  N   UNL     1       5.573   2.107   0.635  1.00  0.00    -0.326 N 
ATOM      8  C   UNL     1       5.231   3.309   1.300  1.00  0.00     0.226 C 
ATOM      9  O   UNL     1       5.709   3.476   2.457  1.00  0.00    -0.274 OA
ATOM     10  H   UNL     1       5.213   1.919  -0.308  1.00  0.00     0.169 HD
BRANCH   8  11
ATOM     11  C   UNL     1       4.363   4.334   0.703  1.00  0.00     0.072 C 
ATOM     12  C   UNL     1       4.755   4.766  -0.677  1.00  0.00     0.018 C 
ATOM     13  C   UNL     1       4.236   5.523   1.601  1.00  0.00     0.018 C 
ENDBRANCH   8  11
ENDBRANCH   1   7
BRANCH   4  14
ATOM     14  C   UNL     1       9.058  -1.383   3.365  1.00  0.00     0.335 C 
ATOM     15  O   UNL     1       9.736  -1.046   4.363  1.00  0.00    -0.246 OA
BRANCH  14  16
ATOM     16  O   UNL     1       9.180  -2.712   2.952  1.00  0.00    -0.478 OA
ATOM     17  H   UNL     1       8.347  -3.306   2.835  1.00  0.00     0.297 HD
ENDBRANCH  14  16
ENDBRANCH   4  14
TORSDOF 4
ENDMDL
MODEL 3
REMARK VINA RESULT:      -3.7      3.033      3.781
REMARK SMILES CC(C)C(=O)Nc1ccc(C(=O)O)cc1
REMARK SMILES IDX 7 1 8 2 9 3 10 4 14 5 15 6 6 7 4 8 5 9 2 11 1 12 3 13 11 14
REMARK SMILES IDX 12 15 13 16
REMARK H PARENT 6 10 13 17
ROOT
ATOM      1  C   UNL     1       6.786   2.363   1.333  1.00  0.00     0.041 A 
ATOM      2  C   UNL     1       7.192   1.386   0.441  1.00  0.00     0.027 A 
ATOM      3  C   UNL     1       7.770   0.213   0.930  1.00  0.00     0.018 A 
ATOM      4  C   UNL     1       7.918   0.066   2.294  1.00  0.00     0.060 A 
ATOM      5  C   UNL     1       7.511   1.043   3.182  1.00  0.00     0.018 A 
ATOM      6  C   UNL     1       6.931   2.223   2.704  1.00  0.00     0.027 A 
ENDROOT
BRANCH   1   7
ATOM      7  N   UNL     1       6.200   3.543   0.760  1.00  0.00    -0.326 N 
ATOM      8  C   UNL     1       4.800   3.522   0.553  1.00  0.00     0.226 C 
ATOM      9  O   UNL     1       4.189   2.468   0.889  1.00  0.00    -0.274 OA
ATOM     10  H   UNL     1       6.747   4.374   0.506  1.00  0.00     0.169 HD
BRANCH   8  11
ATOM     11  C   UNL     1       4.060   4.654  -0.024  1.00  0.00     0.072 C 
ATOM     12  C   UNL     1       4.481   5.041  -1.409  1.00  0.00     0.018 C 
ATOM     13  C   UNL     1       4.102   5.843   0.881  1.00  0.00     0.018 C 
ENDBRANCH   8  11
ENDBRANCH   1   7
BRANCH   4  14
ATOM     14  C   UNL     1       8.517  -1.143   2.874  1.00  0.00     0.335 C 
ATOM     15  O   UNL     1       9.141  -1.144   3.959  1.00  0.00    -0.246 OA
BRANCH  14  16
ATOM     16  O   UNL     1       8.411  -2.369   2.215  1.00  0.00    -0.478 OA
ATOM     17  H   UNL     1       7.974  -3.180   2.676  1.00  0.00     0.297 HD
ENDBRANCH  14  16
ENDBRANCH   4  14
TORSDOF 4
ENDMDL
MODEL 4
REMARK VINA RESULT:      -3.6      3.202      4.113
REMARK SMILES CC(C)C(=O)Nc1ccc(C(=O)O)cc1
REMARK SMILES IDX 7 1 8 2 9 3 10 4 14 5 15 6 6 7 4 8 5 9 2 11 1 12 3 13 11 14
REMARK SMILES IDX 12 15 13 16
REMARK H PARENT 6 10 13 17
ROOT
ATOM      1  C   UNL     1       6.529   1.572   1.169  1.00  0.00     0.041 A 
ATOM      2  C   UNL     1       5.945   0.438   1.706  1.00  0.00     0.027 A 
ATOM      3  C   UNL     1       6.757  -0.537   2.288  1.00  0.00     0.018 A 
ATOM      4  C   UNL     1       8.122  -0.336   2.310  1.00  0.00     0.060 A 
ATOM      5  C   UNL     1       8.701   0.797   1.773  1.00  0.00     0.018 A 
ATOM      6  C   UNL     1       7.899   1.781   1.186  1.00  0.00     0.027 A 
ENDROOT
BRANCH   1   7
ATOM      7  N   UNL     1       5.634   2.532   0.585  1.00  0.00    -0.326 N 
ATOM      8  C   UNL     1       5.225   3.606   1.413  1.00  0.00     0.226 C 
ATOM      9  O   UNL     1       5.682   3.624   2.590  1.00  0.00    -0.274 OA
ATOM     10  H   UNL     1       5.293   2.467  -0.381  1.00  0.00     0.169 HD
BRANCH   8  11
ATOM     11  C   UNL     1       4.312   4.664   0.956  1.00  0.00     0.072 C 
ATOM     12  C   UNL     1       4.677   5.287  -0.357  1.00  0.00     0.018 C 
ATOM     13  C   UNL     1       4.146   5.720   2.002  1.00  0.00     0.018 C 
ENDBRANCH   8  11
ENDBRANCH   1   7
BRANCH   4  14
ATOM     14  C   UNL     1       9.032  -1.321   2.908  1.00  0.00     0.335 C 
ATOM     15  O   UNL     1       9.254  -2.444   2.401  1.00  0.00    -0.246 OA
BRANCH  14  16
ATOM     16  O   UNL     1       9.700  -1.034   4.099  1.00  0.00    -0.478 OA
ATOM     17  H   UNL     1       9.188  -0.680   4.920  1.00  0.00     0.297 HD
ENDBRANCH  14  16
ENDBRANCH   4  14
TORSDOF 4
ENDMDL
MODEL 5
REMARK VINA RESULT:      -3.6      2.932      3.644
REMARK SMILES CC(C)C(=O)Nc1ccc(C(=O)O)cc1
REMARK SMILES IDX 7 1 8 2 9 3 10 4 14 5 15 6 6 7 4 8 5 9 2 11 1 12 3 13 11 14
REMARK SMILES IDX 12 15 13 16
REMARK H PARENT 6 10 13 17
ROOT
ATOM      1  C   UNL     1       6.766   2.608  -0.234  1.00  0.00     0.041 A 
ATOM      2  C   UNL     1       6.798   1.836   0.914  1.00  0.00     0.027 A 
ATOM      3  C   UNL     1       5.738   0.969   1.183  1.00  0.00     0.018 A 
ATOM      4  C   UNL     1       4.688   0.909   0.289  1.00  0.00     0.060 A 
ATOM      5  C   UNL     1       4.660   1.681  -0.856  1.00  0.00     0.018 A 
ATOM      6  C   UNL     1       5.716   2.555  -1.136  1.00  0.00     0.027 A 
ENDROOT
BRANCH   1   7
ATOM      7  N   UNL     1       7.890   3.479  -0.447  1.00  0.00    -0.326 N 
ATOM      8  C   UNL     1       7.726   4.832  -0.069  1.00  0.00     0.226 C 
ATOM      9  O   UNL     1       6.607   5.157   0.420  1.00  0.00    -0.274 OA
ATOM     10  H   UNL     1       8.778   3.159  -0.849  1.00  0.00     0.169 HD
BRANCH   8  11
ATOM     11  C   UNL     1       8.785   5.840  -0.225  1.00  0.00     0.072 C 
ATOM     12  C   UNL     1       9.575   5.732  -1.494  1.00  0.00     0.018 C 
ATOM     13  C   UNL     1       9.702   5.846   0.956  1.00  0.00     0.018 C 
ENDBRANCH   8  11
ENDBRANCH   1   7
BRANCH   4  14
ATOM     14  C   UNL     1       3.543   0.018   0.511  1.00  0.00     0.335 C 
ATOM     15  O   UNL     1       3.358  -1.034  -0.142  1.00  0.00    -0.246 OA
BRANCH  14  16
ATOM     16  O   UNL     1       2.590   0.320   1.486  1.00  0.00    -0.478 OA
ATOM     17  H   UNL     1       2.100   1.226   1.481  1.00  0.00     0.297 HD
ENDBRANCH  14  16
ENDBRANCH   4  14
TORSDOF 4
ENDMDL
MODEL 6
REMARK VINA RESULT:      -3.6      2.645      3.388
REMARK SMILES CC(C)C(=O)Nc1ccc(C(=O)O)cc1
REMARK SMILES IDX 7 1 8 2 9 3 10 4 14 5 15 6 6 7 4 8 5 9 2 11 1 12 3 13 11 14
REMARK SMILES IDX 12 15 13 16
REMARK H PARENT 6 10 13 17
ROOT
ATOM      1  C   UNL     1       7.159   0.712   0.474  1.00  0.00     0.041 A 
ATOM      2  C   UNL     1       8.529   0.539   0.371  1.00  0.00     0.027 A 
ATOM      3  C   UNL     1       9.178  -0.315   1.265  1.00  0.00     0.018 A 
ATOM      4  C   UNL     1       8.427  -0.964   2.225  1.00  0.00     0.060 A 
ATOM      5  C   UNL     1       7.061  -0.790   2.323  1.00  0.00     0.018 A 
ATOM      6  C   UNL     1       6.399   0.065   1.434  1.00  0.00     0.027 A 
ENDROOT
BRANCH   1   7
ATOM      7  N   UNL     1       6.559   1.606  -0.477  1.00  0.00    -0.326 N 
ATOM      8  C   UNL     1       6.458   2.965  -0.096  1.00  0.00     0.226 C 
ATOM      9  O   UNL     1       6.903   3.273   1.045  1.00  0.00    -0.274 OA
ATOM     10  H   UNL     1       6.213   1.300  -1.394  1.00  0.00     0.169 HD
BRANCH   8  11
ATOM     11  C   UNL     1       5.868   3.996  -0.963  1.00  0.00     0.072 C 
ATOM     12  C   UNL     1       5.577   5.299  -0.283  1.00  0.00     0.018 C 
ATOM     13  C   UNL     1       4.641   3.486  -1.650  1.00  0.00     0.018 C 
ENDBRANCH   8  11
ENDBRANCH   1   7
BRANCH   4  14
ATOM     14  C   UNL     1       9.047  -1.877   3.193  1.00  0.00     0.335 C 
ATOM     15  O   UNL     1       9.738  -2.865   2.857  1.00  0.00    -0.246 OA
BRANCH  14  16
ATOM     16  O   UNL     1       8.881  -1.672   4.564  1.00  0.00    -0.478 OA
ATOM     17  H   UNL     1       8.315  -2.320   5.130  1.00  0.00     0.297 HD
ENDBRANCH  14  16
ENDBRANCH   4  14
TORSDOF 4
ENDMDL
MODEL 7
REMARK VINA RESULT:      -3.6      3.070      3.821
REMARK SMILES CC(C)C(=O)Nc1ccc(C(=O)O)cc1
REMARK SMILES IDX 7 1 8 2 9 3 10 4 14 5 15 6 6 7 4 8 5 9 2 11 1 12 3 13 11 14
REMARK SMILES IDX 12 15 13 16
REMARK H PARENT 6 10 13 17
ROOT
ATOM      1  C   UNL     1       5.945   1.992   1.631  1.00  0.00     0.041 A 
ATOM      2  C   UNL     1       6.884   2.255   2.614  1.00  0.00     0.027 A 
ATOM      3  C   UNL     1       7.706   1.221   3.067  1.00  0.00     0.018 A 
ATOM      4  C   UNL     1       7.554  -0.036   2.515  1.00  0.00     0.060 A 
ATOM      5  C   UNL     1       6.617  -0.293   1.534  1.00  0.00     0.018 A 
ATOM      6  C   UNL     1       5.787   0.734   1.072  1.00  0.00     0.027 A 
ENDROOT
BRANCH   1   7
ATOM      7  N   UNL     1       5.134   3.102   1.214  1.00  0.00    -0.326 N 
ATOM      8  C   UNL     1       5.696   3.976   0.253  1.00  0.00     0.226 C 
ATOM      9  O   UNL     1       6.861   3.704  -0.153  1.00  0.00    -0.274 OA
ATOM     10  H   UNL     1       4.190   3.275   1.579  1.00  0.00     0.169 HD
BRANCH   8  11
ATOM     11  C   UNL     1       4.987   5.154  -0.269  1.00  0.00     0.072 C 
ATOM     12  C   UNL     1       4.103   5.846   0.722  1.00  0.00     0.018 C 
ATOM     13  C   UNL     1       4.215   4.815  -1.504  1.00  0.00     0.018 C 
ENDBRANCH   8  11
ENDBRANCH   1   7
BRANCH   4  14
ATOM     14  C   UNL     1       8.387  -1.165   2.944  1.00  0.00     0.335 C 
ATOM     15  O   UNL     1       8.903  -1.979   2.145  1.00  0.00    -0.246 OA
BRANCH  14  16
ATOM     16  O   UNL     1       8.639  -1.382   4.301  1.00  0.00    -0.478 OA
ATOM     17  H   UNL     1       8.013  -0.997   5.022  1.00  0.00     0.297 HD
ENDBRANCH  14  16
ENDBRANCH   4  14
TORSDOF 4
ENDMDL
MODEL 8
REMARK VINA RESULT:      -3.6      3.223      3.678
REMARK SMILES CC(C)C(=O)Nc1ccc(C(=O)O)cc1
REMARK SMILES IDX 7 1 8 2 9 3 10 4 14 5 15 6 6 7 4 8 5 9 2 11 1 12 3 13 11 14
REMARK SMILES IDX 12 15 13 16
REMARK H PARENT 6 10 13 17
ROOT
ATOM      1  C   UNL     1       6.422   1.474   2.086  1.00  0.00     0.041 A 
ATOM      2  C   UNL     1       7.662   1.858   2.565  1.00  0.00     0.027 A 
ATOM      3  C   UNL     1       8.569   0.879   2.975  1.00  0.00     0.018 A 
ATOM      4  C   UNL     1       8.195  -0.448   2.889  1.00  0.00     0.060 A 
ATOM      5  C   UNL     1       6.956  -0.827   2.410  1.00  0.00     0.018 A 
ATOM      6  C   UNL     1       6.039   0.146   1.997  1.00  0.00     0.027 A 
ENDROOT
BRANCH   1   7
ATOM      7  N   UNL     1       5.540   2.535   1.683  1.00  0.00    -0.326 N 
ATOM      8  C   UNL     1       5.624   2.952   0.333  1.00  0.00     0.226 C 
ATOM      9  O   UNL     1       6.465   2.357  -0.398  1.00  0.00    -0.274 OA
ATOM     10  H   UNL     1       4.873   2.983   2.321  1.00  0.00     0.169 HD
BRANCH   8  11
ATOM     11  C   UNL     1       4.787   4.024  -0.225  1.00  0.00     0.072 C 
ATOM     12  C   UNL     1       4.502   3.903  -1.691  1.00  0.00     0.018 C 
ATOM     13  C   UNL     1       5.360   5.371   0.081  1.00  0.00     0.018 C 
ENDBRANCH   8  11
ENDBRANCH   1   7
BRANCH   4  14
ATOM     14  C   UNL     1       9.100  -1.526   3.302  1.00  0.00     0.335 C 
ATOM     15  O   UNL     1       9.343  -2.527   2.590  1.00  0.00    -0.246 OA
BRANCH  14  16
ATOM     16  O   UNL     1       9.740  -1.476   4.542  1.00  0.00    -0.478 OA
ATOM     17  H   UNL     1       9.590  -2.214   5.245  1.00  0.00     0.297 HD
ENDBRANCH  14  16
ENDBRANCH   4  14
TORSDOF 4
ENDMDL
MODEL 9
REMARK VINA RESULT:      -3.6      2.808      3.427
REMARK SMILES CC(C)C(=O)Nc1ccc(C(=O)O)cc1
REMARK SMILES IDX 7 1 8 2 9 3 10 4 14 5 15 6 6 7 4 8 5 9 2 11 1 12 3 13 11 14
REMARK SMILES IDX 12 15 13 16
REMARK H PARENT 6 10 13 17
ROOT
ATOM      1  C   UNL     1       6.779   0.969   0.600  1.00  0.00     0.041 A 
ATOM      2  C   UNL     1       6.054   0.151   1.450  1.00  0.00     0.027 A 
ATOM      3  C   UNL     1       6.727  -0.796   2.223  1.00  0.00     0.018 A 
ATOM      4  C   UNL     1       8.101  -0.885   2.115  1.00  0.00     0.060 A 
ATOM      5  C   UNL     1       8.820  -0.066   1.266  1.00  0.00     0.018 A 
ATOM      6  C   UNL     1       8.157   0.887   0.485  1.00  0.00     0.027 A 
ENDROOT
BRANCH   1   7
ATOM      7  N   UNL     1       6.020   1.920  -0.165  1.00  0.00    -0.326 N 
ATOM      8  C   UNL     1       5.772   3.173   0.443  1.00  0.00     0.226 C 
ATOM      9  O   UNL     1       6.236   3.346   1.605  1.00  0.00    -0.274 OA
ATOM     10  H   UNL     1       5.667   1.725  -1.109  1.00  0.00     0.169 HD
BRANCH   8  11
ATOM     11  C   UNL     1       5.011   4.245  -0.217  1.00  0.00     0.072 C 
ATOM     12  C   UNL     1       4.366   3.855  -1.511  1.00  0.00     0.018 C 
ATOM     13  C   UNL     1       5.854   5.466  -0.405  1.00  0.00     0.018 C 
ENDBRANCH   8  11
ENDBRANCH   1   7
BRANCH   4  14
ATOM     14  C   UNL     1       8.870  -1.858   2.900  1.00  0.00     0.335 C 
ATOM     15  O   UNL     1       9.686  -2.657   2.390  1.00  0.00    -0.246 OA
BRANCH  14  16
ATOM     16  O   UNL     1       8.711  -1.931   4.286  1.00  0.00    -0.478 OA
ATOM     17  H   UNL     1       9.035  -1.166   4.895  1.00  0.00     0.297 HD
ENDBRANCH  14  16
ENDBRANCH   4  14
TORSDOF 4
ENDMDL
